Redirecting stdout to /home/majid/gem5/gem5-relax/tests/test-progs/susan/runs/lena-corners-520-0-relaxed-1/lena-corners-520-0-relaxed-1.out
Redirecting stderr to /home/majid/gem5/gem5-relax/tests/test-progs/susan/runs/lena-corners-520-0-relaxed-1/lena-corners-520-0-relaxed-1.err
gem5 Simulator System.  http://gem5.org
gem5 is copyrighted software; use the --copyright option for details.

gem5 compiled Apr 21 2014 11:01:47
gem5 started Apr 24 2014 17:42:55
gem5 executing on drg.ics.uci.edu
command line: /home/majid/gem5/gem5-relax/build/ALPHA/gem5.opt --redirect-stdout --redirect-stderr --stdout-file=/home/majid/gem5/gem5-relax/tests/test-progs/susan/runs/lena-corners-520-0-relaxed-1/lena-corners-520-0-relaxed-1.out --stderr-file=/home/majid/gem5/gem5-relax/tests/test-progs/susan/runs/lena-corners-520-0-relaxed-1/lena-corners-520-0-relaxed-1.err --outdir=/home/majid/gem5/gem5-relax/tests/test-progs/susan/runs/lena-corners-520-0-relaxed-1 --debug-flags=PseudoInst /home/majid/gem5/gem5-relax/configs/example/se_relax_cache.py --cpu-type=detailed --num-cpus=1 --sys-clock=2GHz --cpu-clock=2GHz --mem-type=ddr3_1600_x64 --mem-size=512MB --caches --l2cache --num-l2caches=1 --num-l3caches=0 --l1d_size=32kB --l1i_size=32kB --l2_size=512kB --l1d_assoc=4 --l1i_assoc=4 --l2_assoc=8 --cacheline_size=64 --fast-forward=3390 --maxinsts=100000000000000 --at-instruction --replacement_policy=random --l1_voltage_parameter_file=/home/majid/gem5/gem5-relax/ber_info/gem5params-L1-A.csv --l2_voltage_parameter_file=/home/majid/gem5/gem5-relax/ber_info/gem5params-L2-A.csv --vdd3_l1=520 --vdd2_l1=1000 --vdd1_l1=1000 --vdd3_l2=1000 --vdd2_l2=1000 --vdd1_l2=1000 --init_afb_l1=0 --init_afb_l2=0 --clean_ways_l1=1 --clean_ways_l2=8 -c /home/majid/gem5/gem5-relax/tests/test-progs/susan/bin/alpha/susan -o /home/majid/gem5/gem5-relax/tests/test-progs/susan/inputs/lena.pgm /home/majid/gem5/gem5-relax/tests/test-progs/susan/outputs/lena-corners-520-0-relaxed-1.pgm -c
Global frequency set at 1000000000000 ticks per second
info: Reading this cache's voltage parameter file...
info: Reading this cache's voltage parameter file...
info: Reading this cache's voltage parameter file...
info: Generating fault maps for this cache
info: Fault map generated
info: Dumping cache fault map for VDDs [520 mV, 1000 mV, 1000 mV]...
info: Block# = 0 ==>  0, 0, 0
info: Block# = 1 ==>  1, 0, 0
info: Block# = 2 ==>  0, 0, 0
info: Block# = 3 ==>  0, 0, 0
info: Block# = 4 ==>  0, 0, 0
info: Block# = 5 ==>  0, 0, 0
info: Block# = 6 ==>  0, 0, 0
info: Block# = 7 ==>  1, 0, 0
info: Block# = 8 ==>  0, 0, 0
info: Block# = 9 ==>  0, 0, 0
info: Block# = 10 ==>  2, 0, 0
info: Block# = 11 ==>  1, 0, 0
info: Block# = 12 ==>  0, 0, 0
info: Block# = 13 ==>  0, 0, 0
info: Block# = 14 ==>  0, 0, 0
info: Block# = 15 ==>  0, 0, 0
info: Block# = 16 ==>  0, 0, 0
info: Block# = 17 ==>  0, 0, 0
info: Block# = 18 ==>  1, 0, 0
info: Block# = 19 ==>  0, 0, 0
info: Block# = 20 ==>  0, 0, 0
info: Block# = 21 ==>  0, 0, 0
info: Block# = 22 ==>  0, 0, 0
info: Block# = 23 ==>  0, 0, 0
info: Block# = 24 ==>  0, 0, 0
info: Block# = 25 ==>  0, 0, 0
info: Block# = 26 ==>  0, 0, 0
info: Block# = 27 ==>  2, 0, 0
info: Block# = 28 ==>  0, 0, 0
info: Block# = 29 ==>  0, 0, 0
info: Block# = 30 ==>  1, 0, 0
info: Block# = 31 ==>  1, 0, 0
info: Block# = 32 ==>  0, 0, 0
info: Block# = 33 ==>  2, 0, 0
info: Block# = 34 ==>  1, 0, 0
info: Block# = 35 ==>  1, 0, 0
info: Block# = 36 ==>  0, 0, 0
info: Block# = 37 ==>  0, 0, 0
info: Block# = 38 ==>  1, 0, 0
info: Block# = 39 ==>  0, 0, 0
info: Block# = 40 ==>  0, 0, 0
info: Block# = 41 ==>  0, 0, 0
info: Block# = 42 ==>  0, 0, 0
info: Block# = 43 ==>  1, 0, 0
info: Block# = 44 ==>  0, 0, 0
info: Block# = 45 ==>  0, 0, 0
info: Block# = 46 ==>  1, 0, 0
info: Block# = 47 ==>  0, 0, 0
info: Block# = 48 ==>  0, 0, 0
info: Block# = 49 ==>  0, 0, 0
info: Block# = 50 ==>  1, 0, 0
info: Block# = 51 ==>  0, 0, 0
info: Block# = 52 ==>  0, 0, 0
info: Block# = 53 ==>  2, 0, 0
info: Block# = 54 ==>  1, 0, 0
info: Block# = 55 ==>  0, 0, 0
info: Block# = 56 ==>  0, 0, 0
info: Block# = 57 ==>  0, 0, 0
info: Block# = 58 ==>  1, 0, 0
info: Block# = 59 ==>  1, 0, 0
info: Block# = 60 ==>  0, 0, 0
info: Block# = 61 ==>  1, 0, 0
info: Block# = 62 ==>  2, 0, 0
info: Block# = 63 ==>  0, 0, 0
info: Block# = 64 ==>  0, 0, 0
info: Block# = 65 ==>  0, 0, 0
info: Block# = 66 ==>  1, 0, 0
info: Block# = 67 ==>  2, 0, 0
info: Block# = 68 ==>  0, 0, 0
info: Block# = 69 ==>  0, 0, 0
info: Block# = 70 ==>  0, 0, 0
info: Block# = 71 ==>  1, 0, 0
info: Block# = 72 ==>  0, 0, 0
info: Block# = 73 ==>  1, 0, 0
info: Block# = 74 ==>  1, 0, 0
info: Block# = 75 ==>  2, 0, 0
info: Block# = 76 ==>  0, 0, 0
info: Block# = 77 ==>  0, 0, 0
info: Block# = 78 ==>  1, 0, 0
info: Block# = 79 ==>  1, 0, 0
info: Block# = 80 ==>  0, 0, 0
info: Block# = 81 ==>  1, 0, 0
info: Block# = 82 ==>  0, 0, 0
info: Block# = 83 ==>  1, 0, 0
info: Block# = 84 ==>  0, 0, 0
info: Block# = 85 ==>  0, 0, 0
info: Block# = 86 ==>  0, 0, 0
info: Block# = 87 ==>  0, 0, 0
info: Block# = 88 ==>  0, 0, 0
info: Block# = 89 ==>  3, 0, 0
info: Block# = 90 ==>  1, 0, 0
info: Block# = 91 ==>  1, 0, 0
info: Block# = 92 ==>  0, 0, 0
info: Block# = 93 ==>  0, 0, 0
info: Block# = 94 ==>  0, 0, 0
info: Block# = 95 ==>  1, 0, 0
info: Block# = 96 ==>  0, 0, 0
info: Block# = 97 ==>  0, 0, 0
info: Block# = 98 ==>  1, 0, 0
info: Block# = 99 ==>  0, 0, 0
info: Block# = 100 ==>  0, 0, 0
info: Block# = 101 ==>  0, 0, 0
info: Block# = 102 ==>  0, 0, 0
info: Block# = 103 ==>  1, 0, 0
info: Block# = 104 ==>  0, 0, 0
info: Block# = 105 ==>  0, 0, 0
info: Block# = 106 ==>  0, 0, 0
info: Block# = 107 ==>  2, 0, 0
info: Block# = 108 ==>  0, 0, 0
info: Block# = 109 ==>  2, 0, 0
info: Block# = 110 ==>  3, 0, 0
info: Block# = 111 ==>  1, 0, 0
info: Block# = 112 ==>  0, 0, 0
info: Block# = 113 ==>  1, 0, 0
info: Block# = 114 ==>  1, 0, 0
info: Block# = 115 ==>  0, 0, 0
info: Block# = 116 ==>  0, 0, 0
info: Block# = 117 ==>  0, 0, 0
info: Block# = 118 ==>  1, 0, 0
info: Block# = 119 ==>  0, 0, 0
info: Block# = 120 ==>  0, 0, 0
info: Block# = 121 ==>  1, 0, 0
info: Block# = 122 ==>  3, 0, 0
info: Block# = 123 ==>  2, 0, 0
info: Block# = 124 ==>  0, 0, 0
info: Block# = 125 ==>  2, 0, 0
info: Block# = 126 ==>  1, 0, 0
info: Block# = 127 ==>  0, 0, 0
info: Block# = 128 ==>  0, 0, 0
info: Block# = 129 ==>  1, 0, 0
info: Block# = 130 ==>  1, 0, 0
info: Block# = 131 ==>  2, 0, 0
info: Block# = 132 ==>  0, 0, 0
info: Block# = 133 ==>  2, 0, 0
info: Block# = 134 ==>  1, 0, 0
info: Block# = 135 ==>  0, 0, 0
info: Block# = 136 ==>  0, 0, 0
info: Block# = 137 ==>  1, 0, 0
info: Block# = 138 ==>  1, 0, 0
info: Block# = 139 ==>  0, 0, 0
info: Block# = 140 ==>  0, 0, 0
info: Block# = 141 ==>  1, 0, 0
info: Block# = 142 ==>  0, 0, 0
info: Block# = 143 ==>  0, 0, 0
info: Block# = 144 ==>  0, 0, 0
info: Block# = 145 ==>  0, 0, 0
info: Block# = 146 ==>  0, 0, 0
info: Block# = 147 ==>  1, 0, 0
info: Block# = 148 ==>  0, 0, 0
info: Block# = 149 ==>  2, 0, 0
info: Block# = 150 ==>  0, 0, 0
info: Block# = 151 ==>  1, 0, 0
info: Block# = 152 ==>  0, 0, 0
info: Block# = 153 ==>  0, 0, 0
info: Block# = 154 ==>  1, 0, 0
info: Block# = 155 ==>  0, 0, 0
info: Block# = 156 ==>  0, 0, 0
info: Block# = 157 ==>  0, 0, 0
info: Block# = 158 ==>  0, 0, 0
info: Block# = 159 ==>  2, 0, 0
info: Block# = 160 ==>  0, 0, 0
info: Block# = 161 ==>  0, 0, 0
info: Block# = 162 ==>  1, 0, 0
info: Block# = 163 ==>  2, 0, 0
info: Block# = 164 ==>  0, 0, 0
info: Block# = 165 ==>  2, 0, 0
info: Block# = 166 ==>  0, 0, 0
info: Block# = 167 ==>  2, 0, 0
info: Block# = 168 ==>  0, 0, 0
info: Block# = 169 ==>  0, 0, 0
info: Block# = 170 ==>  3, 0, 0
info: Block# = 171 ==>  0, 0, 0
info: Block# = 172 ==>  0, 0, 0
info: Block# = 173 ==>  0, 0, 0
info: Block# = 174 ==>  0, 0, 0
info: Block# = 175 ==>  0, 0, 0
info: Block# = 176 ==>  0, 0, 0
info: Block# = 177 ==>  0, 0, 0
info: Block# = 178 ==>  0, 0, 0
info: Block# = 179 ==>  0, 0, 0
info: Block# = 180 ==>  0, 0, 0
info: Block# = 181 ==>  0, 0, 0
info: Block# = 182 ==>  1, 0, 0
info: Block# = 183 ==>  0, 0, 0
info: Block# = 184 ==>  0, 0, 0
info: Block# = 185 ==>  0, 0, 0
info: Block# = 186 ==>  0, 0, 0
info: Block# = 187 ==>  2, 0, 0
info: Block# = 188 ==>  0, 0, 0
info: Block# = 189 ==>  1, 0, 0
info: Block# = 190 ==>  0, 0, 0
info: Block# = 191 ==>  0, 0, 0
info: Block# = 192 ==>  0, 0, 0
info: Block# = 193 ==>  1, 0, 0
info: Block# = 194 ==>  1, 0, 0
info: Block# = 195 ==>  0, 0, 0
info: Block# = 196 ==>  0, 0, 0
info: Block# = 197 ==>  1, 0, 0
info: Block# = 198 ==>  0, 0, 0
info: Block# = 199 ==>  1, 0, 0
info: Block# = 200 ==>  0, 0, 0
info: Block# = 201 ==>  1, 0, 0
info: Block# = 202 ==>  3, 0, 0
info: Block# = 203 ==>  2, 0, 0
info: Block# = 204 ==>  0, 0, 0
info: Block# = 205 ==>  0, 0, 0
info: Block# = 206 ==>  0, 0, 0
info: Block# = 207 ==>  0, 0, 0
info: Block# = 208 ==>  0, 0, 0
info: Block# = 209 ==>  0, 0, 0
info: Block# = 210 ==>  1, 0, 0
info: Block# = 211 ==>  0, 0, 0
info: Block# = 212 ==>  0, 0, 0
info: Block# = 213 ==>  0, 0, 0
info: Block# = 214 ==>  3, 0, 0
info: Block# = 215 ==>  0, 0, 0
info: Block# = 216 ==>  0, 0, 0
info: Block# = 217 ==>  0, 0, 0
info: Block# = 218 ==>  1, 0, 0
info: Block# = 219 ==>  0, 0, 0
info: Block# = 220 ==>  0, 0, 0
info: Block# = 221 ==>  1, 0, 0
info: Block# = 222 ==>  0, 0, 0
info: Block# = 223 ==>  1, 0, 0
info: Block# = 224 ==>  0, 0, 0
info: Block# = 225 ==>  1, 0, 0
info: Block# = 226 ==>  1, 0, 0
info: Block# = 227 ==>  0, 0, 0
info: Block# = 228 ==>  0, 0, 0
info: Block# = 229 ==>  1, 0, 0
info: Block# = 230 ==>  0, 0, 0
info: Block# = 231 ==>  0, 0, 0
info: Block# = 232 ==>  0, 0, 0
info: Block# = 233 ==>  0, 0, 0
info: Block# = 234 ==>  0, 0, 0
info: Block# = 235 ==>  2, 0, 0
info: Block# = 236 ==>  0, 0, 0
info: Block# = 237 ==>  1, 0, 0
info: Block# = 238 ==>  1, 0, 0
info: Block# = 239 ==>  2, 0, 0
info: Block# = 240 ==>  0, 0, 0
info: Block# = 241 ==>  0, 0, 0
info: Block# = 242 ==>  1, 0, 0
info: Block# = 243 ==>  1, 0, 0
info: Block# = 244 ==>  0, 0, 0
info: Block# = 245 ==>  0, 0, 0
info: Block# = 246 ==>  0, 0, 0
info: Block# = 247 ==>  0, 0, 0
info: Block# = 248 ==>  0, 0, 0
info: Block# = 249 ==>  0, 0, 0
info: Block# = 250 ==>  0, 0, 0
info: Block# = 251 ==>  0, 0, 0
info: Block# = 252 ==>  0, 0, 0
info: Block# = 253 ==>  1, 0, 0
info: Block# = 254 ==>  0, 0, 0
info: Block# = 255 ==>  2, 0, 0
info: Block# = 256 ==>  0, 0, 0
info: Block# = 257 ==>  2, 0, 0
info: Block# = 258 ==>  0, 0, 0
info: Block# = 259 ==>  0, 0, 0
info: Block# = 260 ==>  0, 0, 0
info: Block# = 261 ==>  1, 0, 0
info: Block# = 262 ==>  1, 0, 0
info: Block# = 263 ==>  0, 0, 0
info: Block# = 264 ==>  0, 0, 0
info: Block# = 265 ==>  2, 0, 0
info: Block# = 266 ==>  0, 0, 0
info: Block# = 267 ==>  0, 0, 0
info: Block# = 268 ==>  0, 0, 0
info: Block# = 269 ==>  0, 0, 0
info: Block# = 270 ==>  0, 0, 0
info: Block# = 271 ==>  1, 0, 0
info: Block# = 272 ==>  0, 0, 0
info: Block# = 273 ==>  1, 0, 0
info: Block# = 274 ==>  0, 0, 0
info: Block# = 275 ==>  2, 0, 0
info: Block# = 276 ==>  0, 0, 0
info: Block# = 277 ==>  2, 0, 0
info: Block# = 278 ==>  0, 0, 0
info: Block# = 279 ==>  0, 0, 0
info: Block# = 280 ==>  0, 0, 0
info: Block# = 281 ==>  1, 0, 0
info: Block# = 282 ==>  1, 0, 0
info: Block# = 283 ==>  0, 0, 0
info: Block# = 284 ==>  0, 0, 0
info: Block# = 285 ==>  0, 0, 0
info: Block# = 286 ==>  0, 0, 0
info: Block# = 287 ==>  0, 0, 0
info: Block# = 288 ==>  0, 0, 0
info: Block# = 289 ==>  0, 0, 0
info: Block# = 290 ==>  1, 0, 0
info: Block# = 291 ==>  0, 0, 0
info: Block# = 292 ==>  0, 0, 0
info: Block# = 293 ==>  2, 0, 0
info: Block# = 294 ==>  1, 0, 0
info: Block# = 295 ==>  0, 0, 0
info: Block# = 296 ==>  0, 0, 0
info: Block# = 297 ==>  2, 0, 0
info: Block# = 298 ==>  0, 0, 0
info: Block# = 299 ==>  1, 0, 0
info: Block# = 300 ==>  0, 0, 0
info: Block# = 301 ==>  0, 0, 0
info: Block# = 302 ==>  0, 0, 0
info: Block# = 303 ==>  1, 0, 0
info: Block# = 304 ==>  0, 0, 0
info: Block# = 305 ==>  0, 0, 0
info: Block# = 306 ==>  2, 0, 0
info: Block# = 307 ==>  1, 0, 0
info: Block# = 308 ==>  0, 0, 0
info: Block# = 309 ==>  0, 0, 0
info: Block# = 310 ==>  0, 0, 0
info: Block# = 311 ==>  0, 0, 0
info: Block# = 312 ==>  0, 0, 0
info: Block# = 313 ==>  0, 0, 0
info: Block# = 314 ==>  0, 0, 0
info: Block# = 315 ==>  2, 0, 0
info: Block# = 316 ==>  0, 0, 0
info: Block# = 317 ==>  0, 0, 0
info: Block# = 318 ==>  1, 0, 0
info: Block# = 319 ==>  1, 0, 0
info: Block# = 320 ==>  0, 0, 0
info: Block# = 321 ==>  1, 0, 0
info: Block# = 322 ==>  0, 0, 0
info: Block# = 323 ==>  0, 0, 0
info: Block# = 324 ==>  0, 0, 0
info: Block# = 325 ==>  0, 0, 0
info: Block# = 326 ==>  0, 0, 0
info: Block# = 327 ==>  0, 0, 0
info: Block# = 328 ==>  0, 0, 0
info: Block# = 329 ==>  0, 0, 0
info: Block# = 330 ==>  1, 0, 0
info: Block# = 331 ==>  0, 0, 0
info: Block# = 332 ==>  0, 0, 0
info: Block# = 333 ==>  3, 0, 0
info: Block# = 334 ==>  0, 0, 0
info: Block# = 335 ==>  1, 0, 0
info: Block# = 336 ==>  0, 0, 0
info: Block# = 337 ==>  0, 0, 0
info: Block# = 338 ==>  0, 0, 0
info: Block# = 339 ==>  0, 0, 0
info: Block# = 340 ==>  0, 0, 0
info: Block# = 341 ==>  1, 0, 0
info: Block# = 342 ==>  0, 0, 0
info: Block# = 343 ==>  1, 0, 0
info: Block# = 344 ==>  0, 0, 0
info: Block# = 345 ==>  0, 0, 0
info: Block# = 346 ==>  0, 0, 0
info: Block# = 347 ==>  0, 0, 0
info: Block# = 348 ==>  0, 0, 0
info: Block# = 349 ==>  0, 0, 0
info: Block# = 350 ==>  0, 0, 0
info: Block# = 351 ==>  0, 0, 0
info: Block# = 352 ==>  0, 0, 0
info: Block# = 353 ==>  1, 0, 0
info: Block# = 354 ==>  1, 0, 0
info: Block# = 355 ==>  0, 0, 0
info: Block# = 356 ==>  0, 0, 0
info: Block# = 357 ==>  2, 0, 0
info: Block# = 358 ==>  2, 0, 0
info: Block# = 359 ==>  0, 0, 0
info: Block# = 360 ==>  0, 0, 0
info: Block# = 361 ==>  2, 0, 0
info: Block# = 362 ==>  1, 0, 0
info: Block# = 363 ==>  0, 0, 0
info: Block# = 364 ==>  0, 0, 0
info: Block# = 365 ==>  0, 0, 0
info: Block# = 366 ==>  1, 0, 0
info: Block# = 367 ==>  0, 0, 0
info: Block# = 368 ==>  0, 0, 0
info: Block# = 369 ==>  0, 0, 0
info: Block# = 370 ==>  0, 0, 0
info: Block# = 371 ==>  0, 0, 0
info: Block# = 372 ==>  0, 0, 0
info: Block# = 373 ==>  0, 0, 0
info: Block# = 374 ==>  1, 0, 0
info: Block# = 375 ==>  0, 0, 0
info: Block# = 376 ==>  0, 0, 0
info: Block# = 377 ==>  1, 0, 0
info: Block# = 378 ==>  1, 0, 0
info: Block# = 379 ==>  0, 0, 0
info: Block# = 380 ==>  0, 0, 0
info: Block# = 381 ==>  2, 0, 0
info: Block# = 382 ==>  1, 0, 0
info: Block# = 383 ==>  1, 0, 0
info: Block# = 384 ==>  0, 0, 0
info: Block# = 385 ==>  0, 0, 0
info: Block# = 386 ==>  0, 0, 0
info: Block# = 387 ==>  1, 0, 0
info: Block# = 388 ==>  0, 0, 0
info: Block# = 389 ==>  1, 0, 0
info: Block# = 390 ==>  0, 0, 0
info: Block# = 391 ==>  1, 0, 0
info: Block# = 392 ==>  0, 0, 0
info: Block# = 393 ==>  0, 0, 0
info: Block# = 394 ==>  1, 0, 0
info: Block# = 395 ==>  1, 0, 0
info: Block# = 396 ==>  0, 0, 0
info: Block# = 397 ==>  1, 0, 0
info: Block# = 398 ==>  0, 0, 0
info: Block# = 399 ==>  0, 0, 0
info: Block# = 400 ==>  0, 0, 0
info: Block# = 401 ==>  1, 0, 0
info: Block# = 402 ==>  5, 0, 0
info: Block# = 403 ==>  0, 0, 0
info: Block# = 404 ==>  0, 0, 0
info: Block# = 405 ==>  0, 0, 0
info: Block# = 406 ==>  1, 0, 0
info: Block# = 407 ==>  1, 0, 0
info: Block# = 408 ==>  0, 0, 0
info: Block# = 409 ==>  0, 0, 0
info: Block# = 410 ==>  0, 0, 0
info: Block# = 411 ==>  1, 0, 0
info: Block# = 412 ==>  0, 0, 0
info: Block# = 413 ==>  0, 0, 0
info: Block# = 414 ==>  1, 0, 0
info: Block# = 415 ==>  0, 0, 0
info: Block# = 416 ==>  0, 0, 0
info: Block# = 417 ==>  0, 0, 0
info: Block# = 418 ==>  2, 0, 0
info: Block# = 419 ==>  0, 0, 0
info: Block# = 420 ==>  0, 0, 0
info: Block# = 421 ==>  2, 0, 0
info: Block# = 422 ==>  1, 0, 0
info: Block# = 423 ==>  1, 0, 0
info: Block# = 424 ==>  0, 0, 0
info: Block# = 425 ==>  0, 0, 0
info: Block# = 426 ==>  0, 0, 0
info: Block# = 427 ==>  1, 0, 0
info: Block# = 428 ==>  0, 0, 0
info: Block# = 429 ==>  0, 0, 0
info: Block# = 430 ==>  0, 0, 0
info: Block# = 431 ==>  0, 0, 0
info: Block# = 432 ==>  0, 0, 0
info: Block# = 433 ==>  0, 0, 0
info: Block# = 434 ==>  2, 0, 0
info: Block# = 435 ==>  0, 0, 0
info: Block# = 436 ==>  0, 0, 0
info: Block# = 437 ==>  0, 0, 0
info: Block# = 438 ==>  3, 0, 0
info: Block# = 439 ==>  0, 0, 0
info: Block# = 440 ==>  0, 0, 0
info: Block# = 441 ==>  0, 0, 0
info: Block# = 442 ==>  0, 0, 0
info: Block# = 443 ==>  0, 0, 0
info: Block# = 444 ==>  0, 0, 0
info: Block# = 445 ==>  0, 0, 0
info: Block# = 446 ==>  0, 0, 0
info: Block# = 447 ==>  0, 0, 0
info: Block# = 448 ==>  0, 0, 0
info: Block# = 449 ==>  1, 0, 0
info: Block# = 450 ==>  1, 0, 0
info: Block# = 451 ==>  2, 0, 0
info: Block# = 452 ==>  0, 0, 0
info: Block# = 453 ==>  0, 0, 0
info: Block# = 454 ==>  0, 0, 0
info: Block# = 455 ==>  0, 0, 0
info: Block# = 456 ==>  0, 0, 0
info: Block# = 457 ==>  1, 0, 0
info: Block# = 458 ==>  1, 0, 0
info: Block# = 459 ==>  2, 0, 0
info: Block# = 460 ==>  0, 0, 0
info: Block# = 461 ==>  0, 0, 0
info: Block# = 462 ==>  0, 0, 0
info: Block# = 463 ==>  0, 0, 0
info: Block# = 464 ==>  0, 0, 0
info: Block# = 465 ==>  0, 0, 0
info: Block# = 466 ==>  1, 0, 0
info: Block# = 467 ==>  1, 0, 0
info: Block# = 468 ==>  0, 0, 0
info: Block# = 469 ==>  0, 0, 0
info: Block# = 470 ==>  3, 0, 0
info: Block# = 471 ==>  2, 0, 0
info: Block# = 472 ==>  0, 0, 0
info: Block# = 473 ==>  2, 0, 0
info: Block# = 474 ==>  0, 0, 0
info: Block# = 475 ==>  1, 0, 0
info: Block# = 476 ==>  0, 0, 0
info: Block# = 477 ==>  1, 0, 0
info: Block# = 478 ==>  0, 0, 0
info: Block# = 479 ==>  1, 0, 0
info: Block# = 480 ==>  0, 0, 0
info: Block# = 481 ==>  1, 0, 0
info: Block# = 482 ==>  1, 0, 0
info: Block# = 483 ==>  1, 0, 0
info: Block# = 484 ==>  0, 0, 0
info: Block# = 485 ==>  0, 0, 0
info: Block# = 486 ==>  0, 0, 0
info: Block# = 487 ==>  0, 0, 0
info: Block# = 488 ==>  0, 0, 0
info: Block# = 489 ==>  0, 0, 0
info: Block# = 490 ==>  2, 0, 0
info: Block# = 491 ==>  0, 0, 0
info: Block# = 492 ==>  0, 0, 0
info: Block# = 493 ==>  0, 0, 0
info: Block# = 494 ==>  0, 0, 0
info: Block# = 495 ==>  1, 0, 0
info: Block# = 496 ==>  0, 0, 0
info: Block# = 497 ==>  1, 0, 0
info: Block# = 498 ==>  1, 0, 0
info: Block# = 499 ==>  1, 0, 0
info: Block# = 500 ==>  0, 0, 0
info: Block# = 501 ==>  0, 0, 0
info: Block# = 502 ==>  0, 0, 0
info: Block# = 503 ==>  0, 0, 0
info: Block# = 504 ==>  0, 0, 0
info: Block# = 505 ==>  0, 0, 0
info: Block# = 506 ==>  1, 0, 0
info: Block# = 507 ==>  0, 0, 0
info: Block# = 508 ==>  0, 0, 0
info: Block# = 509 ==>  0, 0, 0
info: Block# = 510 ==>  1, 0, 0
info: Block# = 511 ==>  0, 0, 0
info: Block [0][1] disabled and invalidated 
info: Block [1][3] disabled and invalidated 
info: Block [2][2] disabled and invalidated 
info: Block [2][3] disabled and invalidated 
info: Block [4][2] disabled and invalidated 
info: Block [6][3] disabled and invalidated 
info: Block [7][2] disabled and invalidated 
info: Block [7][3] disabled and invalidated 
info: Block [8][1] disabled and invalidated 
info: Block [8][2] disabled and invalidated 
info: Block [8][3] disabled and invalidated 
info: Block [9][2] disabled and invalidated 
info: Block [10][3] disabled and invalidated 
info: Block [11][2] disabled and invalidated 
info: Block [12][2] disabled and invalidated 
info: Block [13][1] disabled and invalidated 
info: Block [13][2] disabled and invalidated 
info: Block [14][2] disabled and invalidated 
info: Block [14][3] disabled and invalidated 
info: Block [15][1] disabled and invalidated 
info: Block [15][2] disabled and invalidated 
info: Block [16][2] disabled and invalidated 
info: Block [16][3] disabled and invalidated 
info: Block [17][3] disabled and invalidated 
info: Block [18][1] disabled and invalidated 
info: Block [18][2] disabled and invalidated 
info: Block [18][3] disabled and invalidated 
info: Block [19][2] disabled and invalidated 
info: Block [19][3] disabled and invalidated 
info: Block [20][1] disabled and invalidated 
info: Block [20][3] disabled and invalidated 
info: Block [22][1] disabled and invalidated 
info: Block [22][2] disabled and invalidated 
info: Block [22][3] disabled and invalidated 
info: Block [23][3] disabled and invalidated 
info: Block [24][2] disabled and invalidated 
info: Block [25][3] disabled and invalidated 
info: Block [26][3] disabled and invalidated 
info: Block [27][1] disabled and invalidated 
info: Block [27][2] disabled and invalidated 
info: Block [27][3] disabled and invalidated 
info: Block [28][1] disabled and invalidated 
info: Block [28][2] disabled and invalidated 
info: Block [29][2] disabled and invalidated 
info: Block [30][1] disabled and invalidated 
info: Block [30][2] disabled and invalidated 
info: Block [30][3] disabled and invalidated 
info: Block [31][1] disabled and invalidated 
info: Block [31][2] disabled and invalidated 
info: Block [32][1] disabled and invalidated 
info: Block [32][2] disabled and invalidated 
info: Block [32][3] disabled and invalidated 
info: Block [33][1] disabled and invalidated 
info: Block [33][2] disabled and invalidated 
info: Block [34][1] disabled and invalidated 
info: Block [34][2] disabled and invalidated 
info: Block [35][1] disabled and invalidated 
info: Block [36][3] disabled and invalidated 
info: Block [37][1] disabled and invalidated 
info: Block [37][3] disabled and invalidated 
info: Block [38][2] disabled and invalidated 
info: Block [39][3] disabled and invalidated 
info: Block [40][2] disabled and invalidated 
info: Block [40][3] disabled and invalidated 
info: Block [41][1] disabled and invalidated 
info: Block [41][3] disabled and invalidated 
info: Block [42][2] disabled and invalidated 
info: Block [45][2] disabled and invalidated 
info: Block [46][3] disabled and invalidated 
info: Block [47][1] disabled and invalidated 
info: Block [48][1] disabled and invalidated 
info: Block [48][2] disabled and invalidated 
info: Block [49][1] disabled and invalidated 
info: Block [49][3] disabled and invalidated 
info: Block [50][1] disabled and invalidated 
info: Block [50][2] disabled and invalidated 
info: Block [50][3] disabled and invalidated 
info: Block [52][2] disabled and invalidated 
info: Block [53][2] disabled and invalidated 
info: Block [54][2] disabled and invalidated 
info: Block [55][1] disabled and invalidated 
info: Block [55][3] disabled and invalidated 
info: Block [56][1] disabled and invalidated 
info: Block [56][2] disabled and invalidated 
info: Block [57][1] disabled and invalidated 
info: Block [58][3] disabled and invalidated 
info: Block [59][1] disabled and invalidated 
info: Block [59][2] disabled and invalidated 
info: Block [59][3] disabled and invalidated 
info: Block [60][2] disabled and invalidated 
info: Block [60][3] disabled and invalidated 
info: Block [63][1] disabled and invalidated 
info: Block [63][3] disabled and invalidated 
info: Block [64][1] disabled and invalidated 
info: Block [65][1] disabled and invalidated 
info: Block [65][2] disabled and invalidated 
info: Block [66][1] disabled and invalidated 
info: Block [67][3] disabled and invalidated 
info: Block [68][1] disabled and invalidated 
info: Block [68][3] disabled and invalidated 
info: Block [69][1] disabled and invalidated 
info: Block [70][1] disabled and invalidated 
info: Block [70][2] disabled and invalidated 
info: Block [72][2] disabled and invalidated 
info: Block [73][1] disabled and invalidated 
info: Block [73][2] disabled and invalidated 
info: Block [74][1] disabled and invalidated 
info: Block [74][3] disabled and invalidated 
info: Block [75][3] disabled and invalidated 
info: Block [76][2] disabled and invalidated 
info: Block [76][3] disabled and invalidated 
info: Block [78][3] disabled and invalidated 
info: Block [79][2] disabled and invalidated 
info: Block [79][3] disabled and invalidated 
info: Block [80][1] disabled and invalidated 
info: Block [82][2] disabled and invalidated 
info: Block [83][1] disabled and invalidated 
info: Block [83][3] disabled and invalidated 
info: Block [85][1] disabled and invalidated 
info: Block [85][3] disabled and invalidated 
info: Block [88][1] disabled and invalidated 
info: Block [88][2] disabled and invalidated 
info: Block [89][1] disabled and invalidated 
info: Block [89][2] disabled and invalidated 
info: Block [90][1] disabled and invalidated 
info: Block [90][2] disabled and invalidated 
info: Block [91][2] disabled and invalidated 
info: Block [93][2] disabled and invalidated 
info: Block [94][1] disabled and invalidated 
info: Block [94][2] disabled and invalidated 
info: Block [95][1] disabled and invalidated 
info: Block [95][2] disabled and invalidated 
info: Block [95][3] disabled and invalidated 
info: Block [96][3] disabled and invalidated 
info: Block [97][1] disabled and invalidated 
info: Block [97][3] disabled and invalidated 
info: Block [98][2] disabled and invalidated 
info: Block [98][3] disabled and invalidated 
info: Block [99][1] disabled and invalidated 
info: Block [100][1] disabled and invalidated 
info: Block [100][2] disabled and invalidated 
info: Block [101][2] disabled and invalidated 
info: Block [101][3] disabled and invalidated 
info: Block [102][3] disabled and invalidated 
info: Block [103][2] disabled and invalidated 
info: Block [104][2] disabled and invalidated 
info: Block [105][1] disabled and invalidated 
info: Block [105][2] disabled and invalidated 
info: Block [105][3] disabled and invalidated 
info: Block [106][3] disabled and invalidated 
info: Block [108][2] disabled and invalidated 
info: Block [109][2] disabled and invalidated 
info: Block [112][1] disabled and invalidated 
info: Block [112][2] disabled and invalidated 
info: Block [112][3] disabled and invalidated 
info: Block [114][1] disabled and invalidated 
info: Block [114][2] disabled and invalidated 
info: Block [114][3] disabled and invalidated 
info: Block [116][2] disabled and invalidated 
info: Block [116][3] disabled and invalidated 
info: Block [117][2] disabled and invalidated 
info: Block [117][3] disabled and invalidated 
info: Block [118][1] disabled and invalidated 
info: Block [118][3] disabled and invalidated 
info: Block [119][1] disabled and invalidated 
info: Block [119][3] disabled and invalidated 
info: Block [120][1] disabled and invalidated 
info: Block [120][2] disabled and invalidated 
info: Block [120][3] disabled and invalidated 
info: Block [122][2] disabled and invalidated 
info: Block [123][3] disabled and invalidated 
info: Block [124][1] disabled and invalidated 
info: Block [124][2] disabled and invalidated 
info: Block [124][3] disabled and invalidated 
info: Block [126][2] disabled and invalidated 
info: Block [127][2] disabled and invalidated 
info: Dumping cache status for current VDD = 520 mV and AFB = 0...
info: Status Bits: Disabled, Faulty, HWPrefetched, Referenced | Dirty, Readable, Writable, Valid
info: Block# = 0 ==>  0
info: Block# = 1 ==> c0
info: Block# = 2 ==>  0
info: Block# = 3 ==>  0
info: Block# = 4 ==>  0
info: Block# = 5 ==>  0
info: Block# = 6 ==>  0
info: Block# = 7 ==> c0
info: Block# = 8 ==>  0
info: Block# = 9 ==>  0
info: Block# = 10 ==> c0
info: Block# = 11 ==> c0
info: Block# = 12 ==>  0
info: Block# = 13 ==>  0
info: Block# = 14 ==>  0
info: Block# = 15 ==>  0
info: Block# = 16 ==>  0
info: Block# = 17 ==>  0
info: Block# = 18 ==> c0
info: Block# = 19 ==>  0
info: Block# = 20 ==>  0
info: Block# = 21 ==>  0
info: Block# = 22 ==>  0
info: Block# = 23 ==>  0
info: Block# = 24 ==>  0
info: Block# = 25 ==>  0
info: Block# = 26 ==>  0
info: Block# = 27 ==> c0
info: Block# = 28 ==>  0
info: Block# = 29 ==>  0
info: Block# = 30 ==> c0
info: Block# = 31 ==> c0
info: Block# = 32 ==>  0
info: Block# = 33 ==> c0
info: Block# = 34 ==> c0
info: Block# = 35 ==> c0
info: Block# = 36 ==>  0
info: Block# = 37 ==>  0
info: Block# = 38 ==> c0
info: Block# = 39 ==>  0
info: Block# = 40 ==>  0
info: Block# = 41 ==>  0
info: Block# = 42 ==>  0
info: Block# = 43 ==> c0
info: Block# = 44 ==>  0
info: Block# = 45 ==>  0
info: Block# = 46 ==> c0
info: Block# = 47 ==>  0
info: Block# = 48 ==>  0
info: Block# = 49 ==>  0
info: Block# = 50 ==> c0
info: Block# = 51 ==>  0
info: Block# = 52 ==>  0
info: Block# = 53 ==> c0
info: Block# = 54 ==> c0
info: Block# = 55 ==>  0
info: Block# = 56 ==>  0
info: Block# = 57 ==>  0
info: Block# = 58 ==> c0
info: Block# = 59 ==> c0
info: Block# = 60 ==>  0
info: Block# = 61 ==> c0
info: Block# = 62 ==> c0
info: Block# = 63 ==>  0
info: Block# = 64 ==>  0
info: Block# = 65 ==>  0
info: Block# = 66 ==> c0
info: Block# = 67 ==> c0
info: Block# = 68 ==>  0
info: Block# = 69 ==>  0
info: Block# = 70 ==>  0
info: Block# = 71 ==> c0
info: Block# = 72 ==>  0
info: Block# = 73 ==> c0
info: Block# = 74 ==> c0
info: Block# = 75 ==> c0
info: Block# = 76 ==>  0
info: Block# = 77 ==>  0
info: Block# = 78 ==> c0
info: Block# = 79 ==> c0
info: Block# = 80 ==>  0
info: Block# = 81 ==> c0
info: Block# = 82 ==>  0
info: Block# = 83 ==> c0
info: Block# = 84 ==>  0
info: Block# = 85 ==>  0
info: Block# = 86 ==>  0
info: Block# = 87 ==>  0
info: Block# = 88 ==>  0
info: Block# = 89 ==> c0
info: Block# = 90 ==> c0
info: Block# = 91 ==> c0
info: Block# = 92 ==>  0
info: Block# = 93 ==>  0
info: Block# = 94 ==>  0
info: Block# = 95 ==> c0
info: Block# = 96 ==>  0
info: Block# = 97 ==>  0
info: Block# = 98 ==> c0
info: Block# = 99 ==>  0
info: Block# = 100 ==>  0
info: Block# = 101 ==>  0
info: Block# = 102 ==>  0
info: Block# = 103 ==> c0
info: Block# = 104 ==>  0
info: Block# = 105 ==>  0
info: Block# = 106 ==>  0
info: Block# = 107 ==> c0
info: Block# = 108 ==>  0
info: Block# = 109 ==> c0
info: Block# = 110 ==> c0
info: Block# = 111 ==> c0
info: Block# = 112 ==>  0
info: Block# = 113 ==> c0
info: Block# = 114 ==> c0
info: Block# = 115 ==>  0
info: Block# = 116 ==>  0
info: Block# = 117 ==>  0
info: Block# = 118 ==> c0
info: Block# = 119 ==>  0
info: Block# = 120 ==>  0
info: Block# = 121 ==> c0
info: Block# = 122 ==> c0
info: Block# = 123 ==> c0
info: Block# = 124 ==>  0
info: Block# = 125 ==> c0
info: Block# = 126 ==> c0
info: Block# = 127 ==>  0
info: Block# = 128 ==>  0
info: Block# = 129 ==> c0
info: Block# = 130 ==> c0
info: Block# = 131 ==> c0
info: Block# = 132 ==>  0
info: Block# = 133 ==> c0
info: Block# = 134 ==> c0
info: Block# = 135 ==>  0
info: Block# = 136 ==>  0
info: Block# = 137 ==> c0
info: Block# = 138 ==> c0
info: Block# = 139 ==>  0
info: Block# = 140 ==>  0
info: Block# = 141 ==> c0
info: Block# = 142 ==>  0
info: Block# = 143 ==>  0
info: Block# = 144 ==>  0
info: Block# = 145 ==>  0
info: Block# = 146 ==>  0
info: Block# = 147 ==> c0
info: Block# = 148 ==>  0
info: Block# = 149 ==> c0
info: Block# = 150 ==>  0
info: Block# = 151 ==> c0
info: Block# = 152 ==>  0
info: Block# = 153 ==>  0
info: Block# = 154 ==> c0
info: Block# = 155 ==>  0
info: Block# = 156 ==>  0
info: Block# = 157 ==>  0
info: Block# = 158 ==>  0
info: Block# = 159 ==> c0
info: Block# = 160 ==>  0
info: Block# = 161 ==>  0
info: Block# = 162 ==> c0
info: Block# = 163 ==> c0
info: Block# = 164 ==>  0
info: Block# = 165 ==> c0
info: Block# = 166 ==>  0
info: Block# = 167 ==> c0
info: Block# = 168 ==>  0
info: Block# = 169 ==>  0
info: Block# = 170 ==> c0
info: Block# = 171 ==>  0
info: Block# = 172 ==>  0
info: Block# = 173 ==>  0
info: Block# = 174 ==>  0
info: Block# = 175 ==>  0
info: Block# = 176 ==>  0
info: Block# = 177 ==>  0
info: Block# = 178 ==>  0
info: Block# = 179 ==>  0
info: Block# = 180 ==>  0
info: Block# = 181 ==>  0
info: Block# = 182 ==> c0
info: Block# = 183 ==>  0
info: Block# = 184 ==>  0
info: Block# = 185 ==>  0
info: Block# = 186 ==>  0
info: Block# = 187 ==> c0
info: Block# = 188 ==>  0
info: Block# = 189 ==> c0
info: Block# = 190 ==>  0
info: Block# = 191 ==>  0
info: Block# = 192 ==>  0
info: Block# = 193 ==> c0
info: Block# = 194 ==> c0
info: Block# = 195 ==>  0
info: Block# = 196 ==>  0
info: Block# = 197 ==> c0
info: Block# = 198 ==>  0
info: Block# = 199 ==> c0
info: Block# = 200 ==>  0
info: Block# = 201 ==> c0
info: Block# = 202 ==> c0
info: Block# = 203 ==> c0
info: Block# = 204 ==>  0
info: Block# = 205 ==>  0
info: Block# = 206 ==>  0
info: Block# = 207 ==>  0
info: Block# = 208 ==>  0
info: Block# = 209 ==>  0
info: Block# = 210 ==> c0
info: Block# = 211 ==>  0
info: Block# = 212 ==>  0
info: Block# = 213 ==>  0
info: Block# = 214 ==> c0
info: Block# = 215 ==>  0
info: Block# = 216 ==>  0
info: Block# = 217 ==>  0
info: Block# = 218 ==> c0
info: Block# = 219 ==>  0
info: Block# = 220 ==>  0
info: Block# = 221 ==> c0
info: Block# = 222 ==>  0
info: Block# = 223 ==> c0
info: Block# = 224 ==>  0
info: Block# = 225 ==> c0
info: Block# = 226 ==> c0
info: Block# = 227 ==>  0
info: Block# = 228 ==>  0
info: Block# = 229 ==> c0
info: Block# = 230 ==>  0
info: Block# = 231 ==>  0
info: Block# = 232 ==>  0
info: Block# = 233 ==>  0
info: Block# = 234 ==>  0
info: Block# = 235 ==> c0
info: Block# = 236 ==>  0
info: Block# = 237 ==> c0
info: Block# = 238 ==> c0
info: Block# = 239 ==> c0
info: Block# = 240 ==>  0
info: Block# = 241 ==>  0
info: Block# = 242 ==> c0
info: Block# = 243 ==> c0
info: Block# = 244 ==>  0
info: Block# = 245 ==>  0
info: Block# = 246 ==>  0
info: Block# = 247 ==>  0
info: Block# = 248 ==>  0
info: Block# = 249 ==>  0
info: Block# = 250 ==>  0
info: Block# = 251 ==>  0
info: Block# = 252 ==>  0
info: Block# = 253 ==> c0
info: Block# = 254 ==>  0
info: Block# = 255 ==> c0
info: Block# = 256 ==>  0
info: Block# = 257 ==> c0
info: Block# = 258 ==>  0
info: Block# = 259 ==>  0
info: Block# = 260 ==>  0
info: Block# = 261 ==> c0
info: Block# = 262 ==> c0
info: Block# = 263 ==>  0
info: Block# = 264 ==>  0
info: Block# = 265 ==> c0
info: Block# = 266 ==>  0
info: Block# = 267 ==>  0
info: Block# = 268 ==>  0
info: Block# = 269 ==>  0
info: Block# = 270 ==>  0
info: Block# = 271 ==> c0
info: Block# = 272 ==>  0
info: Block# = 273 ==> c0
info: Block# = 274 ==>  0
info: Block# = 275 ==> c0
info: Block# = 276 ==>  0
info: Block# = 277 ==> c0
info: Block# = 278 ==>  0
info: Block# = 279 ==>  0
info: Block# = 280 ==>  0
info: Block# = 281 ==> c0
info: Block# = 282 ==> c0
info: Block# = 283 ==>  0
info: Block# = 284 ==>  0
info: Block# = 285 ==>  0
info: Block# = 286 ==>  0
info: Block# = 287 ==>  0
info: Block# = 288 ==>  0
info: Block# = 289 ==>  0
info: Block# = 290 ==> c0
info: Block# = 291 ==>  0
info: Block# = 292 ==>  0
info: Block# = 293 ==> c0
info: Block# = 294 ==> c0
info: Block# = 295 ==>  0
info: Block# = 296 ==>  0
info: Block# = 297 ==> c0
info: Block# = 298 ==>  0
info: Block# = 299 ==> c0
info: Block# = 300 ==>  0
info: Block# = 301 ==>  0
info: Block# = 302 ==>  0
info: Block# = 303 ==> c0
info: Block# = 304 ==>  0
info: Block# = 305 ==>  0
info: Block# = 306 ==> c0
info: Block# = 307 ==> c0
info: Block# = 308 ==>  0
info: Block# = 309 ==>  0
info: Block# = 310 ==>  0
info: Block# = 311 ==>  0
info: Block# = 312 ==>  0
info: Block# = 313 ==>  0
info: Block# = 314 ==>  0
info: Block# = 315 ==> c0
info: Block# = 316 ==>  0
info: Block# = 317 ==>  0
info: Block# = 318 ==> c0
info: Block# = 319 ==> c0
info: Block# = 320 ==>  0
info: Block# = 321 ==> c0
info: Block# = 322 ==>  0
info: Block# = 323 ==>  0
info: Block# = 324 ==>  0
info: Block# = 325 ==>  0
info: Block# = 326 ==>  0
info: Block# = 327 ==>  0
info: Block# = 328 ==>  0
info: Block# = 329 ==>  0
info: Block# = 330 ==> c0
info: Block# = 331 ==>  0
info: Block# = 332 ==>  0
info: Block# = 333 ==> c0
info: Block# = 334 ==>  0
info: Block# = 335 ==> c0
info: Block# = 336 ==>  0
info: Block# = 337 ==>  0
info: Block# = 338 ==>  0
info: Block# = 339 ==>  0
info: Block# = 340 ==>  0
info: Block# = 341 ==> c0
info: Block# = 342 ==>  0
info: Block# = 343 ==> c0
info: Block# = 344 ==>  0
info: Block# = 345 ==>  0
info: Block# = 346 ==>  0
info: Block# = 347 ==>  0
info: Block# = 348 ==>  0
info: Block# = 349 ==>  0
info: Block# = 350 ==>  0
info: Block# = 351 ==>  0
info: Block# = 352 ==>  0
info: Block# = 353 ==> c0
info: Block# = 354 ==> c0
info: Block# = 355 ==>  0
info: Block# = 356 ==>  0
info: Block# = 357 ==> c0
info: Block# = 358 ==> c0
info: Block# = 359 ==>  0
info: Block# = 360 ==>  0
info: Block# = 361 ==> c0
info: Block# = 362 ==> c0
info: Block# = 363 ==>  0
info: Block# = 364 ==>  0
info: Block# = 365 ==>  0
info: Block# = 366 ==> c0
info: Block# = 367 ==>  0
info: Block# = 368 ==>  0
info: Block# = 369 ==>  0
info: Block# = 370 ==>  0
info: Block# = 371 ==>  0
info: Block# = 372 ==>  0
info: Block# = 373 ==>  0
info: Block# = 374 ==> c0
info: Block# = 375 ==>  0
info: Block# = 376 ==>  0
info: Block# = 377 ==> c0
info: Block# = 378 ==> c0
info: Block# = 379 ==>  0
info: Block# = 380 ==>  0
info: Block# = 381 ==> c0
info: Block# = 382 ==> c0
info: Block# = 383 ==> c0
info: Block# = 384 ==>  0
info: Block# = 385 ==>  0
info: Block# = 386 ==>  0
info: Block# = 387 ==> c0
info: Block# = 388 ==>  0
info: Block# = 389 ==> c0
info: Block# = 390 ==>  0
info: Block# = 391 ==> c0
info: Block# = 392 ==>  0
info: Block# = 393 ==>  0
info: Block# = 394 ==> c0
info: Block# = 395 ==> c0
info: Block# = 396 ==>  0
info: Block# = 397 ==> c0
info: Block# = 398 ==>  0
info: Block# = 399 ==>  0
info: Block# = 400 ==>  0
info: Block# = 401 ==> c0
info: Block# = 402 ==> c0
info: Block# = 403 ==>  0
info: Block# = 404 ==>  0
info: Block# = 405 ==>  0
info: Block# = 406 ==> c0
info: Block# = 407 ==> c0
info: Block# = 408 ==>  0
info: Block# = 409 ==>  0
info: Block# = 410 ==>  0
info: Block# = 411 ==> c0
info: Block# = 412 ==>  0
info: Block# = 413 ==>  0
info: Block# = 414 ==> c0
info: Block# = 415 ==>  0
info: Block# = 416 ==>  0
info: Block# = 417 ==>  0
info: Block# = 418 ==> c0
info: Block# = 419 ==>  0
info: Block# = 420 ==>  0
info: Block# = 421 ==> c0
info: Block# = 422 ==> c0
info: Block# = 423 ==> c0
info: Block# = 424 ==>  0
info: Block# = 425 ==>  0
info: Block# = 426 ==>  0
info: Block# = 427 ==> c0
info: Block# = 428 ==>  0
info: Block# = 429 ==>  0
info: Block# = 430 ==>  0
info: Block# = 431 ==>  0
info: Block# = 432 ==>  0
info: Block# = 433 ==>  0
info: Block# = 434 ==> c0
info: Block# = 435 ==>  0
info: Block# = 436 ==>  0
info: Block# = 437 ==>  0
info: Block# = 438 ==> c0
info: Block# = 439 ==>  0
info: Block# = 440 ==>  0
info: Block# = 441 ==>  0
info: Block# = 442 ==>  0
info: Block# = 443 ==>  0
info: Block# = 444 ==>  0
info: Block# = 445 ==>  0
info: Block# = 446 ==>  0
info: Block# = 447 ==>  0
info: Block# = 448 ==>  0
info: Block# = 449 ==> c0
info: Block# = 450 ==> c0
info: Block# = 451 ==> c0
info: Block# = 452 ==>  0
info: Block# = 453 ==>  0
info: Block# = 454 ==>  0
info: Block# = 455 ==>  0
info: Block# = 456 ==>  0
info: Block# = 457 ==> c0
info: Block# = 458 ==> c0
info: Block# = 459 ==> c0
info: Block# = 460 ==>  0
info: Block# = 461 ==>  0
info: Block# = 462 ==>  0
info: Block# = 463 ==>  0
info: Block# = 464 ==>  0
info: Block# = 465 ==>  0
info: Block# = 466 ==> c0
info: Block# = 467 ==> c0
info: Block# = 468 ==>  0
info: Block# = 469 ==>  0
info: Block# = 470 ==> c0
info: Block# = 471 ==> c0
info: Block# = 472 ==>  0
info: Block# = 473 ==> c0
info: Block# = 474 ==>  0
info: Block# = 475 ==> c0
info: Block# = 476 ==>  0
info: Block# = 477 ==> c0
info: Block# = 478 ==>  0
info: Block# = 479 ==> c0
info: Block# = 480 ==>  0
info: Block# = 481 ==> c0
info: Block# = 482 ==> c0
info: Block# = 483 ==> c0
info: Block# = 484 ==>  0
info: Block# = 485 ==>  0
info: Block# = 486 ==>  0
info: Block# = 487 ==>  0
info: Block# = 488 ==>  0
info: Block# = 489 ==>  0
info: Block# = 490 ==> c0
info: Block# = 491 ==>  0
info: Block# = 492 ==>  0
info: Block# = 493 ==>  0
info: Block# = 494 ==>  0
info: Block# = 495 ==> c0
info: Block# = 496 ==>  0
info: Block# = 497 ==> c0
info: Block# = 498 ==> c0
info: Block# = 499 ==> c0
info: Block# = 500 ==>  0
info: Block# = 501 ==>  0
info: Block# = 502 ==>  0
info: Block# = 503 ==>  0
info: Block# = 504 ==>  0
info: Block# = 505 ==>  0
info: Block# = 506 ==> c0
info: Block# = 507 ==>  0
info: Block# = 508 ==>  0
info: Block# = 509 ==>  0
info: Block# = 510 ==> c0
info: Block# = 511 ==>  0
Switch at instruction count:3390
info: Entering event queue @ 0.  Starting simulation...
info: Increasing stack size by one page.
Switched CPUS @ tick 1711000
switching cpus
**** REAL SIMULATION ****
info: Entering event queue @ 1711000.  Starting simulation...
info: Increasing stack size by one page.
info: Increasing stack size by one page.
info: Increasing stack size by one page.
info: Increasing stack size by one page.
info: Increasing stack size by one page.
info: Increasing stack size by one page.
info: Increasing stack size by one page.
info: Increasing stack size by one page.
info: Increasing stack size by one page.
info: Increasing stack size by one page.
info: Increasing stack size by one page.
info: Increasing stack size by one page.
info: Increasing stack size by one page.
info: Increasing stack size by one page.
info: Increasing stack size by one page.
info: Increasing stack size by one page.
info: Increasing stack size by one page.
info: Increasing stack size by one page.
info: Increasing stack size by one page.
info: Increasing stack size by one page.
info: Increasing stack size by one page.
info: Increasing stack size by one page.
info: Increasing stack size by one page.
info: Increasing stack size by one page.
info: Increasing stack size by one page.
info: Increasing stack size by one page.
info: Increasing stack size by one page.
info: Increasing stack size by one page.
info: Increasing stack size by one page.
info: Increasing stack size by one page.
info: Increasing stack size by one page.
info: Increasing stack size by one page.
info: Increasing stack size by one page.
info: Increasing stack size by one page.
info: Increasing stack size by one page.
info: Increasing stack size by one page.
info: Increasing stack size by one page.
info: Increasing stack size by one page.
info: Increasing stack size by one page.
info: Increasing stack size by one page.
info: Increasing stack size by one page.
info: Increasing stack size by one page.
info: Increasing stack size by one page.
info: Increasing stack size by one page.
info: Increasing stack size by one page.
16185500: global: Approximate Region Added: begin=0x12010, end=0x52010, Table Size=1
31617000: global: Approximate Region Added: begin=0x54010, end=0x15401c, Table Size=2
31823000: global: Approximate Region Added: begin=0x1200cf470, end=0x1200cf674, Table Size=3
425749500: global: Approximate Region Added: begin=0x156010, end=0x25601c, Table Size=4
425960000: global: Approximate Region Added: begin=0x258010, end=0x35801c, Table Size=5
41703882000: global: Approximate Region Removed: begin=0x156010, end=0x25601c, Table Size=4
41703886000: global: Approximate Region Removed: begin=0x258010, end=0x35801c, Table Size=3
Exiting @ tick 41758938500 because target called exit()
