
---------- Begin Simulation Statistics ----------
sim_seconds                                  0.055822                       # Number of seconds simulated
sim_ticks                                 55822331000                       # Number of ticks simulated
final_tick                                55824041500                       # Number of ticks from beginning of simulation (restored from checkpoints and never reset)
sim_freq                                 1000000000000                       # Frequency of simulated ticks
host_inst_rate                                  36914                       # Simulator instruction rate (inst/s)
host_op_rate                                    36914                       # Simulator op (including micro ops) rate (op/s)
host_tick_rate                                8047995                       # Simulator tick rate (ticks/s)
host_mem_usage                                 750416                       # Number of bytes of host memory used
host_seconds                                  6936.18                       # Real time elapsed on the host
sim_insts                                   256045201                       # Number of instructions simulated
sim_ops                                     256045201                       # Number of ops (including micro ops) simulated
system.physmem.bytes_read::switch_cpus.inst        62208                       # Number of bytes read from this memory
system.physmem.bytes_read::switch_cpus.data      9518208                       # Number of bytes read from this memory
system.physmem.bytes_read::total              9580416                       # Number of bytes read from this memory
system.physmem.bytes_inst_read::switch_cpus.inst        62208                       # Number of instructions bytes read from this memory
system.physmem.bytes_inst_read::total           62208                       # Number of instructions bytes read from this memory
system.physmem.bytes_written::writebacks      4752704                       # Number of bytes written to this memory
system.physmem.bytes_written::total           4752704                       # Number of bytes written to this memory
system.physmem.num_reads::switch_cpus.inst          972                       # Number of read requests responded to by this memory
system.physmem.num_reads::switch_cpus.data       148722                       # Number of read requests responded to by this memory
system.physmem.num_reads::total                149694                       # Number of read requests responded to by this memory
system.physmem.num_writes::writebacks           74261                       # Number of write requests responded to by this memory
system.physmem.num_writes::total                74261                       # Number of write requests responded to by this memory
system.physmem.bw_read::switch_cpus.inst      1114393                       # Total read bandwidth from this memory (bytes/s)
system.physmem.bw_read::switch_cpus.data    170508967                       # Total read bandwidth from this memory (bytes/s)
system.physmem.bw_read::total               171623360                       # Total read bandwidth from this memory (bytes/s)
system.physmem.bw_inst_read::switch_cpus.inst      1114393                       # Instruction read bandwidth from this memory (bytes/s)
system.physmem.bw_inst_read::total            1114393                       # Instruction read bandwidth from this memory (bytes/s)
system.physmem.bw_write::writebacks          85139834                       # Write bandwidth from this memory (bytes/s)
system.physmem.bw_write::total               85139834                       # Write bandwidth from this memory (bytes/s)
system.physmem.bw_total::writebacks          85139834                       # Total bandwidth to/from this memory (bytes/s)
system.physmem.bw_total::switch_cpus.inst      1114393                       # Total bandwidth to/from this memory (bytes/s)
system.physmem.bw_total::switch_cpus.data    170508967                       # Total bandwidth to/from this memory (bytes/s)
system.physmem.bw_total::total              256763194                       # Total bandwidth to/from this memory (bytes/s)
system.physmem.readReqs                        149695                       # Total number of read requests seen
system.physmem.writeReqs                        74261                       # Total number of write requests seen
system.physmem.cpureqs                         223956                       # Reqs generatd by CPU via cache - shady
system.physmem.bytesRead                      9580416                       # Total number of bytes read from memory
system.physmem.bytesWritten                   4752704                       # Total number of bytes written to memory
system.physmem.bytesConsumedRd                9580416                       # bytesRead derated as per pkt->getSize()
system.physmem.bytesConsumedWr                4752704                       # bytesWritten derated as per pkt->getSize()
system.physmem.servicedByWrQ                       17                       # Number of read reqs serviced by write Q
system.physmem.neitherReadNorWrite                  0                       # Reqs where no action is needed
system.physmem.perBankRdReqs::0                  9640                       # Track reads on a per bank basis
system.physmem.perBankRdReqs::1                  9535                       # Track reads on a per bank basis
system.physmem.perBankRdReqs::2                  9489                       # Track reads on a per bank basis
system.physmem.perBankRdReqs::3                  9240                       # Track reads on a per bank basis
system.physmem.perBankRdReqs::4                  9388                       # Track reads on a per bank basis
system.physmem.perBankRdReqs::5                  9265                       # Track reads on a per bank basis
system.physmem.perBankRdReqs::6                  9263                       # Track reads on a per bank basis
system.physmem.perBankRdReqs::7                  9306                       # Track reads on a per bank basis
system.physmem.perBankRdReqs::8                  9243                       # Track reads on a per bank basis
system.physmem.perBankRdReqs::9                  9256                       # Track reads on a per bank basis
system.physmem.perBankRdReqs::10                 9262                       # Track reads on a per bank basis
system.physmem.perBankRdReqs::11                 9373                       # Track reads on a per bank basis
system.physmem.perBankRdReqs::12                 9404                       # Track reads on a per bank basis
system.physmem.perBankRdReqs::13                 9347                       # Track reads on a per bank basis
system.physmem.perBankRdReqs::14                 9268                       # Track reads on a per bank basis
system.physmem.perBankRdReqs::15                 9399                       # Track reads on a per bank basis
system.physmem.perBankWrReqs::0                  4736                       # Track writes on a per bank basis
system.physmem.perBankWrReqs::1                  4736                       # Track writes on a per bank basis
system.physmem.perBankWrReqs::2                  4736                       # Track writes on a per bank basis
system.physmem.perBankWrReqs::3                  4613                       # Track writes on a per bank basis
system.physmem.perBankWrReqs::4                  4616                       # Track writes on a per bank basis
system.physmem.perBankWrReqs::5                  4654                       # Track writes on a per bank basis
system.physmem.perBankWrReqs::6                  4608                       # Track writes on a per bank basis
system.physmem.perBankWrReqs::7                  4608                       # Track writes on a per bank basis
system.physmem.perBankWrReqs::8                  4608                       # Track writes on a per bank basis
system.physmem.perBankWrReqs::9                  4608                       # Track writes on a per bank basis
system.physmem.perBankWrReqs::10                 4609                       # Track writes on a per bank basis
system.physmem.perBankWrReqs::11                 4659                       # Track writes on a per bank basis
system.physmem.perBankWrReqs::12                 4640                       # Track writes on a per bank basis
system.physmem.perBankWrReqs::13                 4608                       # Track writes on a per bank basis
system.physmem.perBankWrReqs::14                 4614                       # Track writes on a per bank basis
system.physmem.perBankWrReqs::15                 4608                       # Track writes on a per bank basis
system.physmem.numRdRetry                           0                       # Number of times rd buffer was full causing retry
system.physmem.numWrRetry                           0                       # Number of times wr buffer was full causing retry
system.physmem.totGap                     55822301000                       # Total gap between requests
system.physmem.readPktSize::0                       0                       # Categorize read packet sizes
system.physmem.readPktSize::1                       0                       # Categorize read packet sizes
system.physmem.readPktSize::2                       0                       # Categorize read packet sizes
system.physmem.readPktSize::3                       0                       # Categorize read packet sizes
system.physmem.readPktSize::4                       0                       # Categorize read packet sizes
system.physmem.readPktSize::5                       0                       # Categorize read packet sizes
system.physmem.readPktSize::6                  149695                       # Categorize read packet sizes
system.physmem.writePktSize::0                      0                       # Categorize write packet sizes
system.physmem.writePktSize::1                      0                       # Categorize write packet sizes
system.physmem.writePktSize::2                      0                       # Categorize write packet sizes
system.physmem.writePktSize::3                      0                       # Categorize write packet sizes
system.physmem.writePktSize::4                      0                       # Categorize write packet sizes
system.physmem.writePktSize::5                      0                       # Categorize write packet sizes
system.physmem.writePktSize::6                  74261                       # Categorize write packet sizes
system.physmem.rdQLenPdf::0                    149162                       # What read queue length does an incoming req see
system.physmem.rdQLenPdf::1                       379                       # What read queue length does an incoming req see
system.physmem.rdQLenPdf::2                       106                       # What read queue length does an incoming req see
system.physmem.rdQLenPdf::3                        27                       # What read queue length does an incoming req see
system.physmem.rdQLenPdf::4                         3                       # What read queue length does an incoming req see
system.physmem.rdQLenPdf::5                         1                       # What read queue length does an incoming req see
system.physmem.rdQLenPdf::6                         0                       # What read queue length does an incoming req see
system.physmem.rdQLenPdf::7                         0                       # What read queue length does an incoming req see
system.physmem.rdQLenPdf::8                         0                       # What read queue length does an incoming req see
system.physmem.rdQLenPdf::9                         0                       # What read queue length does an incoming req see
system.physmem.rdQLenPdf::10                        0                       # What read queue length does an incoming req see
system.physmem.rdQLenPdf::11                        0                       # What read queue length does an incoming req see
system.physmem.rdQLenPdf::12                        0                       # What read queue length does an incoming req see
system.physmem.rdQLenPdf::13                        0                       # What read queue length does an incoming req see
system.physmem.rdQLenPdf::14                        0                       # What read queue length does an incoming req see
system.physmem.rdQLenPdf::15                        0                       # What read queue length does an incoming req see
system.physmem.rdQLenPdf::16                        0                       # What read queue length does an incoming req see
system.physmem.rdQLenPdf::17                        0                       # What read queue length does an incoming req see
system.physmem.rdQLenPdf::18                        0                       # What read queue length does an incoming req see
system.physmem.rdQLenPdf::19                        0                       # What read queue length does an incoming req see
system.physmem.rdQLenPdf::20                        0                       # What read queue length does an incoming req see
system.physmem.rdQLenPdf::21                        0                       # What read queue length does an incoming req see
system.physmem.rdQLenPdf::22                        0                       # What read queue length does an incoming req see
system.physmem.rdQLenPdf::23                        0                       # What read queue length does an incoming req see
system.physmem.rdQLenPdf::24                        0                       # What read queue length does an incoming req see
system.physmem.rdQLenPdf::25                        0                       # What read queue length does an incoming req see
system.physmem.rdQLenPdf::26                        0                       # What read queue length does an incoming req see
system.physmem.rdQLenPdf::27                        0                       # What read queue length does an incoming req see
system.physmem.rdQLenPdf::28                        0                       # What read queue length does an incoming req see
system.physmem.rdQLenPdf::29                        0                       # What read queue length does an incoming req see
system.physmem.rdQLenPdf::30                        0                       # What read queue length does an incoming req see
system.physmem.rdQLenPdf::31                        0                       # What read queue length does an incoming req see
system.physmem.wrQLenPdf::0                      3219                       # What write queue length does an incoming req see
system.physmem.wrQLenPdf::1                      3229                       # What write queue length does an incoming req see
system.physmem.wrQLenPdf::2                      3229                       # What write queue length does an incoming req see
system.physmem.wrQLenPdf::3                      3229                       # What write queue length does an incoming req see
system.physmem.wrQLenPdf::4                      3229                       # What write queue length does an incoming req see
system.physmem.wrQLenPdf::5                      3229                       # What write queue length does an incoming req see
system.physmem.wrQLenPdf::6                      3229                       # What write queue length does an incoming req see
system.physmem.wrQLenPdf::7                      3229                       # What write queue length does an incoming req see
system.physmem.wrQLenPdf::8                      3229                       # What write queue length does an incoming req see
system.physmem.wrQLenPdf::9                      3229                       # What write queue length does an incoming req see
system.physmem.wrQLenPdf::10                     3229                       # What write queue length does an incoming req see
system.physmem.wrQLenPdf::11                     3229                       # What write queue length does an incoming req see
system.physmem.wrQLenPdf::12                     3229                       # What write queue length does an incoming req see
system.physmem.wrQLenPdf::13                     3229                       # What write queue length does an incoming req see
system.physmem.wrQLenPdf::14                     3229                       # What write queue length does an incoming req see
system.physmem.wrQLenPdf::15                     3229                       # What write queue length does an incoming req see
system.physmem.wrQLenPdf::16                     3229                       # What write queue length does an incoming req see
system.physmem.wrQLenPdf::17                     3228                       # What write queue length does an incoming req see
system.physmem.wrQLenPdf::18                     3228                       # What write queue length does an incoming req see
system.physmem.wrQLenPdf::19                     3228                       # What write queue length does an incoming req see
system.physmem.wrQLenPdf::20                     3228                       # What write queue length does an incoming req see
system.physmem.wrQLenPdf::21                     3228                       # What write queue length does an incoming req see
system.physmem.wrQLenPdf::22                     3228                       # What write queue length does an incoming req see
system.physmem.wrQLenPdf::23                       10                       # What write queue length does an incoming req see
system.physmem.wrQLenPdf::24                        0                       # What write queue length does an incoming req see
system.physmem.wrQLenPdf::25                        0                       # What write queue length does an incoming req see
system.physmem.wrQLenPdf::26                        0                       # What write queue length does an incoming req see
system.physmem.wrQLenPdf::27                        0                       # What write queue length does an incoming req see
system.physmem.wrQLenPdf::28                        0                       # What write queue length does an incoming req see
system.physmem.wrQLenPdf::29                        0                       # What write queue length does an incoming req see
system.physmem.wrQLenPdf::30                        0                       # What write queue length does an incoming req see
system.physmem.wrQLenPdf::31                        0                       # What write queue length does an incoming req see
system.physmem.bytesPerActivate::samples        10821                       # Bytes accessed per row activation
system.physmem.bytesPerActivate::mean     1320.212180                       # Bytes accessed per row activation
system.physmem.bytesPerActivate::gmean     565.474760                       # Bytes accessed per row activation
system.physmem.bytesPerActivate::stdev    2018.857449                       # Bytes accessed per row activation
system.physmem.bytesPerActivate::64-65           1635     15.11%     15.11% # Bytes accessed per row activation
system.physmem.bytesPerActivate::128-129          995      9.20%     24.30% # Bytes accessed per row activation
system.physmem.bytesPerActivate::192-193          345      3.19%     27.49% # Bytes accessed per row activation
system.physmem.bytesPerActivate::256-257          252      2.33%     29.82% # Bytes accessed per row activation
system.physmem.bytesPerActivate::320-321          211      1.95%     31.77% # Bytes accessed per row activation
system.physmem.bytesPerActivate::384-385          249      2.30%     34.07% # Bytes accessed per row activation
system.physmem.bytesPerActivate::448-449          467      4.32%     38.39% # Bytes accessed per row activation
system.physmem.bytesPerActivate::512-513          575      5.31%     43.70% # Bytes accessed per row activation
system.physmem.bytesPerActivate::576-577          245      2.26%     45.97% # Bytes accessed per row activation
system.physmem.bytesPerActivate::640-641          176      1.63%     47.59% # Bytes accessed per row activation
system.physmem.bytesPerActivate::704-705          200      1.85%     49.44% # Bytes accessed per row activation
system.physmem.bytesPerActivate::768-769          192      1.77%     51.22% # Bytes accessed per row activation
system.physmem.bytesPerActivate::832-833          186      1.72%     52.93% # Bytes accessed per row activation
system.physmem.bytesPerActivate::896-897          260      2.40%     55.34% # Bytes accessed per row activation
system.physmem.bytesPerActivate::960-961          707      6.53%     61.87% # Bytes accessed per row activation
system.physmem.bytesPerActivate::1024-1025          479      4.43%     66.30% # Bytes accessed per row activation
system.physmem.bytesPerActivate::1088-1089          204      1.89%     68.18% # Bytes accessed per row activation
system.physmem.bytesPerActivate::1152-1153          179      1.65%     69.84% # Bytes accessed per row activation
system.physmem.bytesPerActivate::1216-1217          163      1.51%     71.34% # Bytes accessed per row activation
system.physmem.bytesPerActivate::1280-1281          190      1.76%     73.10% # Bytes accessed per row activation
system.physmem.bytesPerActivate::1344-1345          186      1.72%     74.82% # Bytes accessed per row activation
system.physmem.bytesPerActivate::1408-1409          237      2.19%     77.01% # Bytes accessed per row activation
system.physmem.bytesPerActivate::1472-1473          975      9.01%     86.02% # Bytes accessed per row activation
system.physmem.bytesPerActivate::1536-1537           71      0.66%     86.67% # Bytes accessed per row activation
system.physmem.bytesPerActivate::1600-1601           39      0.36%     87.03% # Bytes accessed per row activation
system.physmem.bytesPerActivate::1664-1665           41      0.38%     87.41% # Bytes accessed per row activation
system.physmem.bytesPerActivate::1728-1729           25      0.23%     87.64% # Bytes accessed per row activation
system.physmem.bytesPerActivate::1792-1793           33      0.30%     87.95% # Bytes accessed per row activation
system.physmem.bytesPerActivate::1856-1857           27      0.25%     88.20% # Bytes accessed per row activation
system.physmem.bytesPerActivate::1920-1921           24      0.22%     88.42% # Bytes accessed per row activation
system.physmem.bytesPerActivate::1984-1985           28      0.26%     88.68% # Bytes accessed per row activation
system.physmem.bytesPerActivate::2048-2049           28      0.26%     88.94% # Bytes accessed per row activation
system.physmem.bytesPerActivate::2112-2113           17      0.16%     89.10% # Bytes accessed per row activation
system.physmem.bytesPerActivate::2176-2177           17      0.16%     89.25% # Bytes accessed per row activation
system.physmem.bytesPerActivate::2240-2241           18      0.17%     89.42% # Bytes accessed per row activation
system.physmem.bytesPerActivate::2304-2305           14      0.13%     89.55% # Bytes accessed per row activation
system.physmem.bytesPerActivate::2368-2369           12      0.11%     89.66% # Bytes accessed per row activation
system.physmem.bytesPerActivate::2432-2433           10      0.09%     89.75% # Bytes accessed per row activation
system.physmem.bytesPerActivate::2496-2497           10      0.09%     89.84% # Bytes accessed per row activation
system.physmem.bytesPerActivate::2560-2561            9      0.08%     89.93% # Bytes accessed per row activation
system.physmem.bytesPerActivate::2624-2625            4      0.04%     89.96% # Bytes accessed per row activation
system.physmem.bytesPerActivate::2688-2689           11      0.10%     90.07% # Bytes accessed per row activation
system.physmem.bytesPerActivate::2752-2753            7      0.06%     90.13% # Bytes accessed per row activation
system.physmem.bytesPerActivate::2816-2817           13      0.12%     90.25% # Bytes accessed per row activation
system.physmem.bytesPerActivate::2880-2881           11      0.10%     90.35% # Bytes accessed per row activation
system.physmem.bytesPerActivate::2944-2945           17      0.16%     90.51% # Bytes accessed per row activation
system.physmem.bytesPerActivate::3008-3009            6      0.06%     90.56% # Bytes accessed per row activation
system.physmem.bytesPerActivate::3072-3073           10      0.09%     90.66% # Bytes accessed per row activation
system.physmem.bytesPerActivate::3136-3137            5      0.05%     90.70% # Bytes accessed per row activation
system.physmem.bytesPerActivate::3200-3201            8      0.07%     90.78% # Bytes accessed per row activation
system.physmem.bytesPerActivate::3264-3265            8      0.07%     90.85% # Bytes accessed per row activation
system.physmem.bytesPerActivate::3328-3329           10      0.09%     90.94% # Bytes accessed per row activation
system.physmem.bytesPerActivate::3392-3393            6      0.06%     91.00% # Bytes accessed per row activation
system.physmem.bytesPerActivate::3456-3457            4      0.04%     91.04% # Bytes accessed per row activation
system.physmem.bytesPerActivate::3520-3521            7      0.06%     91.10% # Bytes accessed per row activation
system.physmem.bytesPerActivate::3584-3585            4      0.04%     91.14% # Bytes accessed per row activation
system.physmem.bytesPerActivate::3648-3649            7      0.06%     91.20% # Bytes accessed per row activation
system.physmem.bytesPerActivate::3712-3713            3      0.03%     91.23% # Bytes accessed per row activation
system.physmem.bytesPerActivate::3776-3777            4      0.04%     91.27% # Bytes accessed per row activation
system.physmem.bytesPerActivate::3840-3841           11      0.10%     91.37% # Bytes accessed per row activation
system.physmem.bytesPerActivate::3904-3905            4      0.04%     91.41% # Bytes accessed per row activation
system.physmem.bytesPerActivate::3968-3969            7      0.06%     91.47% # Bytes accessed per row activation
system.physmem.bytesPerActivate::4032-4033            7      0.06%     91.53% # Bytes accessed per row activation
system.physmem.bytesPerActivate::4096-4097            5      0.05%     91.58% # Bytes accessed per row activation
system.physmem.bytesPerActivate::4160-4161            2      0.02%     91.60% # Bytes accessed per row activation
system.physmem.bytesPerActivate::4224-4225            3      0.03%     91.63% # Bytes accessed per row activation
system.physmem.bytesPerActivate::4288-4289            1      0.01%     91.64% # Bytes accessed per row activation
system.physmem.bytesPerActivate::4352-4353           10      0.09%     91.73% # Bytes accessed per row activation
system.physmem.bytesPerActivate::4416-4417           15      0.14%     91.87% # Bytes accessed per row activation
system.physmem.bytesPerActivate::4480-4481            4      0.04%     91.90% # Bytes accessed per row activation
system.physmem.bytesPerActivate::4544-4545            7      0.06%     91.97% # Bytes accessed per row activation
system.physmem.bytesPerActivate::4608-4609            6      0.06%     92.02% # Bytes accessed per row activation
system.physmem.bytesPerActivate::4672-4673            3      0.03%     92.05% # Bytes accessed per row activation
system.physmem.bytesPerActivate::4736-4737            4      0.04%     92.09% # Bytes accessed per row activation
system.physmem.bytesPerActivate::4800-4801            6      0.06%     92.14% # Bytes accessed per row activation
system.physmem.bytesPerActivate::4864-4865            7      0.06%     92.21% # Bytes accessed per row activation
system.physmem.bytesPerActivate::4928-4929            7      0.06%     92.27% # Bytes accessed per row activation
system.physmem.bytesPerActivate::4992-4993            4      0.04%     92.31% # Bytes accessed per row activation
system.physmem.bytesPerActivate::5056-5057            1      0.01%     92.32% # Bytes accessed per row activation
system.physmem.bytesPerActivate::5120-5121            7      0.06%     92.39% # Bytes accessed per row activation
system.physmem.bytesPerActivate::5184-5185            4      0.04%     92.42% # Bytes accessed per row activation
system.physmem.bytesPerActivate::5248-5249            5      0.05%     92.47% # Bytes accessed per row activation
system.physmem.bytesPerActivate::5312-5313            2      0.02%     92.49% # Bytes accessed per row activation
system.physmem.bytesPerActivate::5376-5377            8      0.07%     92.56% # Bytes accessed per row activation
system.physmem.bytesPerActivate::5440-5441            3      0.03%     92.59% # Bytes accessed per row activation
system.physmem.bytesPerActivate::5504-5505            4      0.04%     92.63% # Bytes accessed per row activation
system.physmem.bytesPerActivate::5568-5569            1      0.01%     92.63% # Bytes accessed per row activation
system.physmem.bytesPerActivate::5632-5633            3      0.03%     92.66% # Bytes accessed per row activation
system.physmem.bytesPerActivate::5696-5697            1      0.01%     92.67% # Bytes accessed per row activation
system.physmem.bytesPerActivate::5760-5761            4      0.04%     92.71% # Bytes accessed per row activation
system.physmem.bytesPerActivate::5888-5889            3      0.03%     92.74% # Bytes accessed per row activation
system.physmem.bytesPerActivate::5952-5953            5      0.05%     92.78% # Bytes accessed per row activation
system.physmem.bytesPerActivate::6016-6017            9      0.08%     92.87% # Bytes accessed per row activation
system.physmem.bytesPerActivate::6080-6081            3      0.03%     92.89% # Bytes accessed per row activation
system.physmem.bytesPerActivate::6144-6145            1      0.01%     92.90% # Bytes accessed per row activation
system.physmem.bytesPerActivate::6208-6209            2      0.02%     92.92% # Bytes accessed per row activation
system.physmem.bytesPerActivate::6272-6273            4      0.04%     92.96% # Bytes accessed per row activation
system.physmem.bytesPerActivate::6336-6337            8      0.07%     93.03% # Bytes accessed per row activation
system.physmem.bytesPerActivate::6400-6401            3      0.03%     93.06% # Bytes accessed per row activation
system.physmem.bytesPerActivate::6464-6465            2      0.02%     93.08% # Bytes accessed per row activation
system.physmem.bytesPerActivate::6528-6529            2      0.02%     93.10% # Bytes accessed per row activation
system.physmem.bytesPerActivate::6592-6593            5      0.05%     93.14% # Bytes accessed per row activation
system.physmem.bytesPerActivate::6656-6657            5      0.05%     93.19% # Bytes accessed per row activation
system.physmem.bytesPerActivate::6784-6785            3      0.03%     93.22% # Bytes accessed per row activation
system.physmem.bytesPerActivate::6848-6849            3      0.03%     93.24% # Bytes accessed per row activation
system.physmem.bytesPerActivate::6912-6913            3      0.03%     93.27% # Bytes accessed per row activation
system.physmem.bytesPerActivate::6976-6977            2      0.02%     93.29% # Bytes accessed per row activation
system.physmem.bytesPerActivate::7040-7041            1      0.01%     93.30% # Bytes accessed per row activation
system.physmem.bytesPerActivate::7104-7105            5      0.05%     93.35% # Bytes accessed per row activation
system.physmem.bytesPerActivate::7168-7169            6      0.06%     93.40% # Bytes accessed per row activation
system.physmem.bytesPerActivate::7232-7233            9      0.08%     93.48% # Bytes accessed per row activation
system.physmem.bytesPerActivate::7296-7297            3      0.03%     93.51% # Bytes accessed per row activation
system.physmem.bytesPerActivate::7360-7361            3      0.03%     93.54% # Bytes accessed per row activation
system.physmem.bytesPerActivate::7424-7425            7      0.06%     93.61% # Bytes accessed per row activation
system.physmem.bytesPerActivate::7488-7489            4      0.04%     93.64% # Bytes accessed per row activation
system.physmem.bytesPerActivate::7552-7553            3      0.03%     93.67% # Bytes accessed per row activation
system.physmem.bytesPerActivate::7616-7617            5      0.05%     93.72% # Bytes accessed per row activation
system.physmem.bytesPerActivate::7680-7681            4      0.04%     93.75% # Bytes accessed per row activation
system.physmem.bytesPerActivate::7744-7745            4      0.04%     93.79% # Bytes accessed per row activation
system.physmem.bytesPerActivate::7808-7809           12      0.11%     93.90% # Bytes accessed per row activation
system.physmem.bytesPerActivate::7872-7873           10      0.09%     93.99% # Bytes accessed per row activation
system.physmem.bytesPerActivate::7936-7937            9      0.08%     94.08% # Bytes accessed per row activation
system.physmem.bytesPerActivate::8000-8001            4      0.04%     94.11% # Bytes accessed per row activation
system.physmem.bytesPerActivate::8064-8065           15      0.14%     94.25% # Bytes accessed per row activation
system.physmem.bytesPerActivate::8128-8129           10      0.09%     94.34% # Bytes accessed per row activation
system.physmem.bytesPerActivate::8192-8193          612      5.66%    100.00% # Bytes accessed per row activation
system.physmem.bytesPerActivate::total          10821                       # Bytes accessed per row activation
system.physmem.totQLat                      118420500                       # Total cycles spent in queuing delays
system.physmem.totMemAccLat                3049925500                       # Sum of mem lat for all requests
system.physmem.totBusLat                    748390000                       # Total cycles spent in databus access
system.physmem.totBankLat                  2183115000                       # Total cycles spent in bank access
system.physmem.avgQLat                         791.17                       # Average queueing delay per request
system.physmem.avgBankLat                    14585.41                       # Average bank access latency per request
system.physmem.avgBusLat                      5000.00                       # Average bus latency per request
system.physmem.avgMemAccLat                  20376.58                       # Average memory access latency
system.physmem.avgRdBW                         171.62                       # Average achieved read bandwidth in MB/s
system.physmem.avgWrBW                          85.14                       # Average achieved write bandwidth in MB/s
system.physmem.avgConsumedRdBW                 171.62                       # Average consumed read bandwidth in MB/s
system.physmem.avgConsumedWrBW                  85.14                       # Average consumed write bandwidth in MB/s
system.physmem.peakBW                        12800.00                       # Theoretical peak bandwidth in MB/s
system.physmem.busUtil                           2.01                       # Data bus utilization in percentage
system.physmem.avgRdQLen                         0.05                       # Average read queue length over time
system.physmem.avgWrQLen                        11.48                       # Average write queue length over time
system.physmem.readRowHits                     143134                       # Number of row buffer hits during reads
system.physmem.writeRowHits                     69967                       # Number of row buffer hits during writes
system.physmem.readRowHitRate                   95.63                       # Row buffer hit rate for reads
system.physmem.writeRowHitRate                  94.22                       # Row buffer hit rate for writes
system.physmem.avgGap                       249255.66                       # Average gap between requests
system.membus.throughput                    256762047                       # Throughput (bytes/s)
system.membus.trans_dist::ReadReq               75365                       # Transaction distribution
system.membus.trans_dist::ReadResp              75363                       # Transaction distribution
system.membus.trans_dist::Writeback             74261                       # Transaction distribution
system.membus.trans_dist::ReadExReq             74330                       # Transaction distribution
system.membus.trans_dist::ReadExResp            74330                       # Transaction distribution
system.membus.pkt_count_system.l2.mem_side       373649                       # Packet count per connected master and slave (bytes)
system.membus.pkt_count                        373649                       # Packet count per connected master and slave (bytes)
system.membus.tot_pkt_size_system.l2.mem_side     14333056                       # Cumulative packet size per connected master and slave (bytes)
system.membus.tot_pkt_size                   14333056                       # Cumulative packet size per connected master and slave (bytes)
system.membus.data_through_bus               14333056                       # Total data (bytes)
system.membus.snoop_data_through_bus                0                       # Total snoop data (bytes)
system.membus.reqLayer0.occupancy           409022000                       # Layer occupancy (ticks)
system.membus.reqLayer0.utilization               0.7                       # Layer utilization (%)
system.membus.respLayer1.occupancy          710043500                       # Layer occupancy (ticks)
system.membus.respLayer1.utilization              1.3                       # Layer utilization (%)
system.switch_cpus.branchPred.lookups         8741168                       # Number of BP lookups
system.switch_cpus.branchPred.condPredicted      3030940                       # Number of conditional branches predicted
system.switch_cpus.branchPred.condIncorrect         7914                       # Number of conditional branches incorrect
system.switch_cpus.branchPred.BTBLookups      5557685                       # Number of BTB lookups
system.switch_cpus.branchPred.BTBHits         5550048                       # Number of BTB hits
system.switch_cpus.branchPred.BTBCorrect            0                       # Number of correct BTB predictions (this stat may not work properly.
system.switch_cpus.branchPred.BTBHitPct     99.862587                       # BTB Hit Percentage
system.switch_cpus.branchPred.usedRAS         2851684                       # Number of times the RAS was used to get a target.
system.switch_cpus.branchPred.RASInCorrect          114                       # Number of incorrect RAS predictions.
system.switch_cpus.dtb.fetch_hits                   0                       # ITB hits
system.switch_cpus.dtb.fetch_misses                 0                       # ITB misses
system.switch_cpus.dtb.fetch_acv                    0                       # ITB acv
system.switch_cpus.dtb.fetch_accesses               0                       # ITB accesses
system.switch_cpus.dtb.read_hits             73104631                       # DTB read hits
system.switch_cpus.dtb.read_misses               1416                       # DTB read misses
system.switch_cpus.dtb.read_acv                     1                       # DTB read access violations
system.switch_cpus.dtb.read_accesses         73106047                       # DTB read accesses
system.switch_cpus.dtb.write_hits            24466778                       # DTB write hits
system.switch_cpus.dtb.write_misses               715                       # DTB write misses
system.switch_cpus.dtb.write_acv                    0                       # DTB write access violations
system.switch_cpus.dtb.write_accesses        24467493                       # DTB write accesses
system.switch_cpus.dtb.data_hits             97571409                       # DTB hits
system.switch_cpus.dtb.data_misses               2131                       # DTB misses
system.switch_cpus.dtb.data_acv                     1                       # DTB access violations
system.switch_cpus.dtb.data_accesses         97573540                       # DTB accesses
system.switch_cpus.itb.fetch_hits            23375375                       # ITB hits
system.switch_cpus.itb.fetch_misses               101                       # ITB misses
system.switch_cpus.itb.fetch_acv                    0                       # ITB acv
system.switch_cpus.itb.fetch_accesses        23375476                       # ITB accesses
system.switch_cpus.itb.read_hits                    0                       # DTB read hits
system.switch_cpus.itb.read_misses                  0                       # DTB read misses
system.switch_cpus.itb.read_acv                     0                       # DTB read access violations
system.switch_cpus.itb.read_accesses                0                       # DTB read accesses
system.switch_cpus.itb.write_hits                   0                       # DTB write hits
system.switch_cpus.itb.write_misses                 0                       # DTB write misses
system.switch_cpus.itb.write_acv                    0                       # DTB write access violations
system.switch_cpus.itb.write_accesses               0                       # DTB write accesses
system.switch_cpus.itb.data_hits                    0                       # DTB hits
system.switch_cpus.itb.data_misses                  0                       # DTB misses
system.switch_cpus.itb.data_acv                     0                       # DTB access violations
system.switch_cpus.itb.data_accesses                0                       # DTB accesses
system.cpu.workload.num_syscalls                  166                       # Number of system calls
system.switch_cpus.numCycles                111644662                       # number of cpu cycles simulated
system.switch_cpus.numWorkItemsStarted              0                       # number of work items this cpu started
system.switch_cpus.numWorkItemsCompleted            0                       # number of work items this cpu completed
system.switch_cpus.fetch.icacheStallCycles     23405092                       # Number of cycles fetch is stalled on an Icache miss
system.switch_cpus.fetch.Insts              265158783                       # Number of instructions fetch has processed
system.switch_cpus.fetch.Branches             8741168                       # Number of branches that fetch encountered
system.switch_cpus.fetch.predictedBranches      8401732                       # Number of branches that fetch has predicted taken
system.switch_cpus.fetch.Cycles              38730285                       # Number of cycles fetch has run and was not squashing or blocked
system.switch_cpus.fetch.SquashCycles           69251                       # Number of cycles fetch has spent squashing
system.switch_cpus.fetch.BlockedCycles       39695169                       # Number of cycles fetch has spent blocked
system.switch_cpus.fetch.MiscStallCycles           63                       # Number of cycles fetch has spent waiting on interrupts, or bad addresses, or out of MSHRs
system.switch_cpus.fetch.PendingTrapStallCycles         1499                       # Number of stall cycles due to pending traps
system.switch_cpus.fetch.IcacheWaitRetryStallCycles           50                       # Number of stall cycles due to full MSHR
system.switch_cpus.fetch.CacheLines          23375375                       # Number of cache lines fetched
system.switch_cpus.fetch.IcacheSquashes          3445                       # Number of outstanding Icache misses that were squashed
system.switch_cpus.fetch.rateDist::samples    101887967                       # Number of instructions fetched each cycle (Total)
system.switch_cpus.fetch.rateDist::mean      2.602454                       # Number of instructions fetched each cycle (Total)
system.switch_cpus.fetch.rateDist::stdev     3.578557                       # Number of instructions fetched each cycle (Total)
system.switch_cpus.fetch.rateDist::underflows            0      0.00%      0.00% # Number of instructions fetched each cycle (Total)
system.switch_cpus.fetch.rateDist::0         63157682     61.99%     61.99% # Number of instructions fetched each cycle (Total)
system.switch_cpus.fetch.rateDist::1          1351524      1.33%     63.31% # Number of instructions fetched each cycle (Total)
system.switch_cpus.fetch.rateDist::2          2568724      2.52%     65.83% # Number of instructions fetched each cycle (Total)
system.switch_cpus.fetch.rateDist::3          1275182      1.25%     67.09% # Number of instructions fetched each cycle (Total)
system.switch_cpus.fetch.rateDist::4          1539003      1.51%     68.60% # Number of instructions fetched each cycle (Total)
system.switch_cpus.fetch.rateDist::5           799985      0.79%     69.38% # Number of instructions fetched each cycle (Total)
system.switch_cpus.fetch.rateDist::6          1882452      1.85%     71.23% # Number of instructions fetched each cycle (Total)
system.switch_cpus.fetch.rateDist::7          1113704      1.09%     72.32% # Number of instructions fetched each cycle (Total)
system.switch_cpus.fetch.rateDist::8         28199711     27.68%    100.00% # Number of instructions fetched each cycle (Total)
system.switch_cpus.fetch.rateDist::overflows            0      0.00%    100.00% # Number of instructions fetched each cycle (Total)
system.switch_cpus.fetch.rateDist::min_value            0                       # Number of instructions fetched each cycle (Total)
system.switch_cpus.fetch.rateDist::max_value            8                       # Number of instructions fetched each cycle (Total)
system.switch_cpus.fetch.rateDist::total    101887967                       # Number of instructions fetched each cycle (Total)
system.switch_cpus.fetch.branchRate          0.078295                       # Number of branch fetches per cycle
system.switch_cpus.fetch.rate                2.375024                       # Number of inst fetches per cycle
system.switch_cpus.decode.IdleCycles         31782720                       # Number of cycles decode is idle
system.switch_cpus.decode.BlockedCycles      31324744                       # Number of cycles decode is blocked
system.switch_cpus.decode.RunCycles          31873338                       # Number of cycles decode is running
system.switch_cpus.decode.UnblockCycles       6851822                       # Number of cycles decode is unblocking
system.switch_cpus.decode.SquashCycles          55342                       # Number of cycles decode is squashing
system.switch_cpus.decode.BranchResolved      2856755                       # Number of times decode resolved a branch
system.switch_cpus.decode.BranchMispred           484                       # Number of times decode detected a branch misprediction
system.switch_cpus.decode.DecodedInsts      265120285                       # Number of instructions handled by decode
system.switch_cpus.decode.SquashedInsts          1535                       # Number of squashed instructions handled by decode
system.switch_cpus.rename.SquashCycles          55342                       # Number of cycles rename is squashing
system.switch_cpus.rename.IdleCycles         33966158                       # Number of cycles rename is idle
system.switch_cpus.rename.BlockCycles        13737075                       # Number of cycles rename is blocking
system.switch_cpus.rename.serializeStallCycles       122610                       # count of cycles rename stalled for serializing inst
system.switch_cpus.rename.RunCycles          36559849                       # Number of cycles rename is running
system.switch_cpus.rename.UnblockCycles      17446932                       # Number of cycles rename is unblocking
system.switch_cpus.rename.RenamedInsts      265062713                       # Number of instructions processed by rename
system.switch_cpus.rename.ROBFullEvents            25                       # Number of times rename has blocked due to ROB full
system.switch_cpus.rename.IQFullEvents           4561                       # Number of times rename has blocked due to IQ full
system.switch_cpus.rename.LSQFullEvents      16048126                       # Number of times rename has blocked due to LSQ full
system.switch_cpus.rename.RenamedOperands    226127015                       # Number of destination operands rename has renamed
system.switch_cpus.rename.RenameLookups     370806685                       # Number of register rename lookups that rename has made
system.switch_cpus.rename.int_rename_lookups    258183885                       # Number of integer rename lookups
system.switch_cpus.rename.fp_rename_lookups    112622800                       # Number of floating rename lookups
system.switch_cpus.rename.CommittedMaps     225720229                       # Number of HB maps that are committed
system.switch_cpus.rename.UndoneMaps           406786                       # Number of HB maps that are undone due to squashing
system.switch_cpus.rename.serializingInsts         2513                       # count of serializing insts renamed
system.switch_cpus.rename.tempSerializingInsts         1605                       # count of temporary serializing insts renamed
system.switch_cpus.rename.skidInsts          52611929                       # count of insts added to the skid buffer
system.switch_cpus.memDep0.insertedLoads     73141726                       # Number of loads inserted to the mem dependence unit.
system.switch_cpus.memDep0.insertedStores     24489147                       # Number of stores inserted to the mem dependence unit.
system.switch_cpus.memDep0.conflictingLoads      9606568                       # Number of conflicting loads.
system.switch_cpus.memDep0.conflictingStores       734185                       # Number of conflicting stores.
system.switch_cpus.iq.iqInstsAdded          256445245                       # Number of instructions added to the IQ (excludes non-spec)
system.switch_cpus.iq.iqNonSpecInstsAdded         2989                       # Number of non-speculative instructions added to the IQ
system.switch_cpus.iq.iqInstsIssued         256254881                       # Number of instructions issued
system.switch_cpus.iq.iqSquashedInstsIssued         5050                       # Number of squashed instructions issued
system.switch_cpus.iq.iqSquashedInstsExamined       403036                       # Number of squashed instructions iterated over during squash; mainly for profiling
system.switch_cpus.iq.iqSquashedOperandsExamined       359591                       # Number of squashed operands that are examined and possibly removed from graph
system.switch_cpus.iq.iqSquashedNonSpecRemoved          116                       # Number of squashed non-spec instructions that were removed
system.switch_cpus.iq.issued_per_cycle::samples    101887967                       # Number of insts issued each cycle
system.switch_cpus.iq.issued_per_cycle::mean     2.515065                       # Number of insts issued each cycle
system.switch_cpus.iq.issued_per_cycle::stdev     1.591382                       # Number of insts issued each cycle
system.switch_cpus.iq.issued_per_cycle::underflows            0      0.00%      0.00% # Number of insts issued each cycle
system.switch_cpus.iq.issued_per_cycle::0     10702478     10.50%     10.50% # Number of insts issued each cycle
system.switch_cpus.iq.issued_per_cycle::1     18963433     18.61%     29.12% # Number of insts issued each cycle
system.switch_cpus.iq.issued_per_cycle::2     23451673     23.02%     52.13% # Number of insts issued each cycle
system.switch_cpus.iq.issued_per_cycle::3     21186924     20.79%     72.93% # Number of insts issued each cycle
system.switch_cpus.iq.issued_per_cycle::4     15057984     14.78%     87.71% # Number of insts issued each cycle
system.switch_cpus.iq.issued_per_cycle::5      9151888      8.98%     96.69% # Number of insts issued each cycle
system.switch_cpus.iq.issued_per_cycle::6      2866425      2.81%     99.50% # Number of insts issued each cycle
system.switch_cpus.iq.issued_per_cycle::7       419892      0.41%     99.91% # Number of insts issued each cycle
system.switch_cpus.iq.issued_per_cycle::8        87270      0.09%    100.00% # Number of insts issued each cycle
system.switch_cpus.iq.issued_per_cycle::overflows            0      0.00%    100.00% # Number of insts issued each cycle
system.switch_cpus.iq.issued_per_cycle::min_value            0                       # Number of insts issued each cycle
system.switch_cpus.iq.issued_per_cycle::max_value            8                       # Number of insts issued each cycle
system.switch_cpus.iq.issued_per_cycle::total    101887967                       # Number of insts issued each cycle
system.switch_cpus.iq.fu_full::No_OpClass            0      0.00%      0.00% # attempts to use FU when none available
system.switch_cpus.iq.fu_full::IntAlu           13230      0.41%      0.41% # attempts to use FU when none available
system.switch_cpus.iq.fu_full::IntMult              0      0.00%      0.41% # attempts to use FU when none available
system.switch_cpus.iq.fu_full::IntDiv               0      0.00%      0.41% # attempts to use FU when none available
system.switch_cpus.iq.fu_full::FloatAdd             0      0.00%      0.41% # attempts to use FU when none available
system.switch_cpus.iq.fu_full::FloatCmp             0      0.00%      0.41% # attempts to use FU when none available
system.switch_cpus.iq.fu_full::FloatCvt        440035     13.58%     13.99% # attempts to use FU when none available
system.switch_cpus.iq.fu_full::FloatMult       230278      7.11%     21.10% # attempts to use FU when none available
system.switch_cpus.iq.fu_full::FloatDiv             0      0.00%     21.10% # attempts to use FU when none available
system.switch_cpus.iq.fu_full::FloatSqrt            0      0.00%     21.10% # attempts to use FU when none available
system.switch_cpus.iq.fu_full::SimdAdd              0      0.00%     21.10% # attempts to use FU when none available
system.switch_cpus.iq.fu_full::SimdAddAcc            0      0.00%     21.10% # attempts to use FU when none available
system.switch_cpus.iq.fu_full::SimdAlu              0      0.00%     21.10% # attempts to use FU when none available
system.switch_cpus.iq.fu_full::SimdCmp              0      0.00%     21.10% # attempts to use FU when none available
system.switch_cpus.iq.fu_full::SimdCvt              0      0.00%     21.10% # attempts to use FU when none available
system.switch_cpus.iq.fu_full::SimdMisc             0      0.00%     21.10% # attempts to use FU when none available
system.switch_cpus.iq.fu_full::SimdMult             0      0.00%     21.10% # attempts to use FU when none available
system.switch_cpus.iq.fu_full::SimdMultAcc            0      0.00%     21.10% # attempts to use FU when none available
system.switch_cpus.iq.fu_full::SimdShift            0      0.00%     21.10% # attempts to use FU when none available
system.switch_cpus.iq.fu_full::SimdShiftAcc            0      0.00%     21.10% # attempts to use FU when none available
system.switch_cpus.iq.fu_full::SimdSqrt             0      0.00%     21.10% # attempts to use FU when none available
system.switch_cpus.iq.fu_full::SimdFloatAdd            0      0.00%     21.10% # attempts to use FU when none available
system.switch_cpus.iq.fu_full::SimdFloatAlu            0      0.00%     21.10% # attempts to use FU when none available
system.switch_cpus.iq.fu_full::SimdFloatCmp            0      0.00%     21.10% # attempts to use FU when none available
system.switch_cpus.iq.fu_full::SimdFloatCvt            0      0.00%     21.10% # attempts to use FU when none available
system.switch_cpus.iq.fu_full::SimdFloatDiv            0      0.00%     21.10% # attempts to use FU when none available
system.switch_cpus.iq.fu_full::SimdFloatMisc            0      0.00%     21.10% # attempts to use FU when none available
system.switch_cpus.iq.fu_full::SimdFloatMult            0      0.00%     21.10% # attempts to use FU when none available
system.switch_cpus.iq.fu_full::SimdFloatMultAcc            0      0.00%     21.10% # attempts to use FU when none available
system.switch_cpus.iq.fu_full::SimdFloatSqrt            0      0.00%     21.10% # attempts to use FU when none available
system.switch_cpus.iq.fu_full::MemRead        1217428     37.58%     58.68% # attempts to use FU when none available
system.switch_cpus.iq.fu_full::MemWrite       1338636     41.32%    100.00% # attempts to use FU when none available
system.switch_cpus.iq.fu_full::IprAccess            0      0.00%    100.00% # attempts to use FU when none available
system.switch_cpus.iq.fu_full::InstPrefetch            0      0.00%    100.00% # attempts to use FU when none available
system.switch_cpus.iq.FU_type_0::No_OpClass          124      0.00%      0.00% # Type of FU issued
system.switch_cpus.iq.FU_type_0::IntAlu      90339332     35.25%     35.25% # Type of FU issued
system.switch_cpus.iq.FU_type_0::IntMult      5697517      2.22%     37.48% # Type of FU issued
system.switch_cpus.iq.FU_type_0::IntDiv             0      0.00%     37.48% # Type of FU issued
system.switch_cpus.iq.FU_type_0::FloatAdd     38588784     15.06%     52.54% # Type of FU issued
system.switch_cpus.iq.FU_type_0::FloatCmp            3      0.00%     52.54% # Type of FU issued
system.switch_cpus.iq.FU_type_0::FloatCvt     14551636      5.68%     58.21% # Type of FU issued
system.switch_cpus.iq.FU_type_0::FloatMult      8540634      3.33%     61.55% # Type of FU issued
system.switch_cpus.iq.FU_type_0::FloatDiv       949098      0.37%     61.92% # Type of FU issued
system.switch_cpus.iq.FU_type_0::FloatSqrt            0      0.00%     61.92% # Type of FU issued
system.switch_cpus.iq.FU_type_0::SimdAdd            0      0.00%     61.92% # Type of FU issued
system.switch_cpus.iq.FU_type_0::SimdAddAcc            0      0.00%     61.92% # Type of FU issued
system.switch_cpus.iq.FU_type_0::SimdAlu            0      0.00%     61.92% # Type of FU issued
system.switch_cpus.iq.FU_type_0::SimdCmp            0      0.00%     61.92% # Type of FU issued
system.switch_cpus.iq.FU_type_0::SimdCvt            0      0.00%     61.92% # Type of FU issued
system.switch_cpus.iq.FU_type_0::SimdMisc            0      0.00%     61.92% # Type of FU issued
system.switch_cpus.iq.FU_type_0::SimdMult            0      0.00%     61.92% # Type of FU issued
system.switch_cpus.iq.FU_type_0::SimdMultAcc            0      0.00%     61.92% # Type of FU issued
system.switch_cpus.iq.FU_type_0::SimdShift            0      0.00%     61.92% # Type of FU issued
system.switch_cpus.iq.FU_type_0::SimdShiftAcc            0      0.00%     61.92% # Type of FU issued
system.switch_cpus.iq.FU_type_0::SimdSqrt            0      0.00%     61.92% # Type of FU issued
system.switch_cpus.iq.FU_type_0::SimdFloatAdd            0      0.00%     61.92% # Type of FU issued
system.switch_cpus.iq.FU_type_0::SimdFloatAlu            0      0.00%     61.92% # Type of FU issued
system.switch_cpus.iq.FU_type_0::SimdFloatCmp            0      0.00%     61.92% # Type of FU issued
system.switch_cpus.iq.FU_type_0::SimdFloatCvt            0      0.00%     61.92% # Type of FU issued
system.switch_cpus.iq.FU_type_0::SimdFloatDiv            0      0.00%     61.92% # Type of FU issued
system.switch_cpus.iq.FU_type_0::SimdFloatMisc            0      0.00%     61.92% # Type of FU issued
system.switch_cpus.iq.FU_type_0::SimdFloatMult            0      0.00%     61.92% # Type of FU issued
system.switch_cpus.iq.FU_type_0::SimdFloatMultAcc            0      0.00%     61.92% # Type of FU issued
system.switch_cpus.iq.FU_type_0::SimdFloatSqrt            0      0.00%     61.92% # Type of FU issued
system.switch_cpus.iq.FU_type_0::MemRead     73118592     28.53%     90.45% # Type of FU issued
system.switch_cpus.iq.FU_type_0::MemWrite     24469161      9.55%    100.00% # Type of FU issued
system.switch_cpus.iq.FU_type_0::IprAccess            0      0.00%    100.00% # Type of FU issued
system.switch_cpus.iq.FU_type_0::InstPrefetch            0      0.00%    100.00% # Type of FU issued
system.switch_cpus.iq.FU_type_0::total      256254881                       # Type of FU issued
system.switch_cpus.iq.rate                   2.295272                       # Inst issue rate
system.switch_cpus.iq.fu_busy_cnt             3239607                       # FU busy when requested
system.switch_cpus.iq.fu_busy_rate           0.012642                       # FU busy rate (busy events/executed inst)
system.switch_cpus.iq.int_inst_queue_reads    458803432                       # Number of integer instruction queue reads
system.switch_cpus.iq.int_inst_queue_writes    177739863                       # Number of integer instruction queue writes
system.switch_cpus.iq.int_inst_queue_wakeup_accesses    177132671                       # Number of integer instruction queue wakeup accesses
system.switch_cpus.iq.fp_inst_queue_reads    158838954                       # Number of floating instruction queue reads
system.switch_cpus.iq.fp_inst_queue_writes     79115334                       # Number of floating instruction queue writes
system.switch_cpus.iq.fp_inst_queue_wakeup_accesses     79081173                       # Number of floating instruction queue wakeup accesses
system.switch_cpus.iq.int_alu_accesses      179739319                       # Number of integer alu accesses
system.switch_cpus.iq.fp_alu_accesses        79755045                       # Number of floating point alu accesses
system.switch_cpus.iew.lsq.thread0.forwLoads      9867384                       # Number of loads that had data forwarded from stores
system.switch_cpus.iew.lsq.thread0.invAddrLoads            0                       # Number of loads ignored due to an invalid address
system.switch_cpus.iew.lsq.thread0.squashedLoads       129486                       # Number of loads squashed
system.switch_cpus.iew.lsq.thread0.ignoredResponses          199                       # Number of memory responses ignored because the instruction is squashed
system.switch_cpus.iew.lsq.thread0.memOrderViolation         3992                       # Number of memory ordering violations
system.switch_cpus.iew.lsq.thread0.squashedStores        37729                       # Number of stores squashed
system.switch_cpus.iew.lsq.thread0.invAddrSwpfs            0                       # Number of software prefetches ignored due to an invalid address
system.switch_cpus.iew.lsq.thread0.blockedLoads            0                       # Number of blocked loads due to partial load-store forwarding
system.switch_cpus.iew.lsq.thread0.rescheduledLoads           15                       # Number of loads that were rescheduled
system.switch_cpus.iew.lsq.thread0.cacheBlocked          651                       # Number of times an access to memory failed due to the cache being blocked
system.switch_cpus.iew.iewIdleCycles                0                       # Number of cycles IEW is idle
system.switch_cpus.iew.iewSquashCycles          55342                       # Number of cycles IEW is squashing
system.switch_cpus.iew.iewBlockCycles         4021445                       # Number of cycles IEW is blocking
system.switch_cpus.iew.iewUnblockCycles        315602                       # Number of cycles IEW is unblocking
system.switch_cpus.iew.iewDispatchedInsts    264998643                       # Number of instructions dispatched to IQ
system.switch_cpus.iew.iewDispSquashedInsts         2273                       # Number of squashed instructions skipped by dispatch
system.switch_cpus.iew.iewDispLoadInsts      73141726                       # Number of dispatched load instructions
system.switch_cpus.iew.iewDispStoreInsts     24489147                       # Number of dispatched store instructions
system.switch_cpus.iew.iewDispNonSpecInsts         1600                       # Number of dispatched non-speculative instructions
system.switch_cpus.iew.iewIQFullEvents           7749                       # Number of times the IQ has become full, causing a stall
system.switch_cpus.iew.iewLSQFullEvents         25406                       # Number of times the LSQ has become full, causing a stall
system.switch_cpus.iew.memOrderViolationEvents         3992                       # Number of memory order violations
system.switch_cpus.iew.predictedTakenIncorrect         4961                       # Number of branches that were predicted taken incorrectly
system.switch_cpus.iew.predictedNotTakenIncorrect         2888                       # Number of branches that were predicted not taken incorrectly
system.switch_cpus.iew.branchMispredicts         7849                       # Number of branch mispredicts detected at execute
system.switch_cpus.iew.iewExecutedInsts     256236035                       # Number of executed instructions
system.switch_cpus.iew.iewExecLoadInsts      73106059                       # Number of load instructions executed
system.switch_cpus.iew.iewExecSquashedInsts        18846                       # Number of squashed instructions skipped in execute
system.switch_cpus.iew.exec_swp                     0                       # number of swp insts executed
system.switch_cpus.iew.exec_nop               8550409                       # number of nop insts executed
system.switch_cpus.iew.exec_refs             97573553                       # number of memory reference insts executed
system.switch_cpus.iew.exec_branches          8730435                       # Number of branches executed
system.switch_cpus.iew.exec_stores           24467494                       # Number of stores executed
system.switch_cpus.iew.exec_rate             2.295103                       # Inst execution rate
system.switch_cpus.iew.wb_sent              256223332                       # cumulative count of insts sent to commit
system.switch_cpus.iew.wb_count             256213844                       # cumulative count of insts written-back
system.switch_cpus.iew.wb_producers         218226274                       # num instructions producing a value
system.switch_cpus.iew.wb_consumers         246130563                       # num instructions consuming a value
system.switch_cpus.iew.wb_penalized                 0                       # number of instrctions required to write to 'other' IQ
system.switch_cpus.iew.wb_rate               2.294905                       # insts written-back per cycle
system.switch_cpus.iew.wb_fanout             0.886628                       # average fanout of values written-back
system.switch_cpus.iew.wb_penalized_rate            0                       # fraction of instructions written-back that wrote to 'other' IQ
system.switch_cpus.commit.commitSquashedInsts       383359                       # The number of squashed insts skipped by commit
system.switch_cpus.commit.commitNonSpecStalls         2873                       # The number of times commit has been forced to stall to communicate backwards
system.switch_cpus.commit.branchMispredicts         7447                       # The number of times a branch was mispredicted
system.switch_cpus.commit.committed_per_cycle::samples    101832625                       # Number of insts commited each cycle
system.switch_cpus.commit.committed_per_cycle::mean     2.598282                       # Number of insts commited each cycle
system.switch_cpus.commit.committed_per_cycle::stdev     3.280381                       # Number of insts commited each cycle
system.switch_cpus.commit.committed_per_cycle::underflows            0      0.00%      0.00% # Number of insts commited each cycle
system.switch_cpus.commit.committed_per_cycle::0     39787449     39.07%     39.07% # Number of insts commited each cycle
system.switch_cpus.commit.committed_per_cycle::1     26559117     26.08%     65.15% # Number of insts commited each cycle
system.switch_cpus.commit.committed_per_cycle::2      3555878      3.49%     68.64% # Number of insts commited each cycle
system.switch_cpus.commit.committed_per_cycle::3      1795383      1.76%     70.41% # Number of insts commited each cycle
system.switch_cpus.commit.committed_per_cycle::4      1718774      1.69%     72.10% # Number of insts commited each cycle
system.switch_cpus.commit.committed_per_cycle::5      1129426      1.11%     73.20% # Number of insts commited each cycle
system.switch_cpus.commit.committed_per_cycle::6      1751116      1.72%     74.92% # Number of insts commited each cycle
system.switch_cpus.commit.committed_per_cycle::7      1779891      1.75%     76.67% # Number of insts commited each cycle
system.switch_cpus.commit.committed_per_cycle::8     23755591     23.33%    100.00% # Number of insts commited each cycle
system.switch_cpus.commit.committed_per_cycle::overflows            0      0.00%    100.00% # Number of insts commited each cycle
system.switch_cpus.commit.committed_per_cycle::min_value            0                       # Number of insts commited each cycle
system.switch_cpus.commit.committed_per_cycle::max_value            8                       # Number of insts commited each cycle
system.switch_cpus.commit.committed_per_cycle::total    101832625                       # Number of insts commited each cycle
system.switch_cpus.commit.committedInsts    264589909                       # Number of instructions committed
system.switch_cpus.commit.committedOps      264589909                       # Number of ops (including micro ops) committed
system.switch_cpus.commit.swp_count                 0                       # Number of s/w prefetches committed
system.switch_cpus.commit.refs               97463658                       # Number of memory references committed
system.switch_cpus.commit.loads              73012240                       # Number of loads committed
system.switch_cpus.commit.membars                1351                       # Number of memory barriers committed
system.switch_cpus.commit.branches            8720356                       # Number of branches committed
system.switch_cpus.commit.fp_insts           79058653                       # Number of committed floating point instructions.
system.switch_cpus.commit.int_insts         207968675                       # Number of committed integer instructions.
system.switch_cpus.commit.function_calls      2850486                       # Number of function calls committed.
system.switch_cpus.commit.bw_lim_events      23755591                       # number cycles where commit BW limit reached
system.switch_cpus.commit.bw_limited                0                       # number of insts not committed due to BW limits
system.switch_cpus.rob.rob_reads            343033415                       # The number of ROB reads
system.switch_cpus.rob.rob_writes           530002070                       # The number of ROB writes
system.switch_cpus.timesIdled                  148611                       # Number of times that the entire CPU went into an idle state and unscheduled itself
system.switch_cpus.idleCycles                 9756695                       # Total number of cycles that the CPU has spent unscheduled due to idling
system.switch_cpus.committedInsts           256041810                       # Number of Instructions Simulated
system.switch_cpus.committedOps             256041810                       # Number of Ops (including micro ops) Simulated
system.switch_cpus.committedInsts_total     256041810                       # Number of Instructions Simulated
system.switch_cpus.cpi                       0.436041                       # CPI: Cycles Per Instruction
system.switch_cpus.cpi_total                 0.436041                       # CPI: Total CPI of All Threads
system.switch_cpus.ipc                       2.293364                       # IPC: Instructions Per Cycle
system.switch_cpus.ipc_total                 2.293364                       # IPC: Total IPC of All Threads
system.switch_cpus.int_regfile_reads        286543450                       # number of integer regfile reads
system.switch_cpus.int_regfile_writes       151539929                       # number of integer regfile writes
system.switch_cpus.fp_regfile_reads          83818866                       # number of floating regfile reads
system.switch_cpus.fp_regfile_writes         74335550                       # number of floating regfile writes
system.switch_cpus.misc_regfile_reads         2533218                       # number of misc regfile reads
system.switch_cpus.misc_regfile_writes           2703                       # number of misc regfile writes
system.l2.tags.replacements                    141773                       # number of replacements
system.l2.tags.tagsinuse                  7928.913652                       # Cycle average of tags in use
system.l2.tags.total_refs                       51934                       # Total number of references to valid blocks.
system.l2.tags.sampled_refs                    149945                       # Sample count of references to valid blocks.
system.l2.tags.avg_refs                      0.346354                       # Average number of references to valid blocks.
system.l2.tags.warmup_cycle               48906151000                       # Cycle when the warmup percentage was hit.
system.l2.tags.occ_blocks::writebacks     5580.942563                       # Average occupied blocks per requestor
system.l2.tags.occ_blocks::switch_cpus.inst    24.814952                       # Average occupied blocks per requestor
system.l2.tags.occ_blocks::switch_cpus.data  2319.877034                       # Average occupied blocks per requestor
system.l2.tags.occ_blocks::cpu.inst          2.601968                       # Average occupied blocks per requestor
system.l2.tags.occ_blocks::cpu.data          0.677134                       # Average occupied blocks per requestor
system.l2.tags.occ_percent::writebacks       0.681267                       # Average percentage of cache occupancy
system.l2.tags.occ_percent::switch_cpus.inst     0.003029                       # Average percentage of cache occupancy
system.l2.tags.occ_percent::switch_cpus.data     0.283188                       # Average percentage of cache occupancy
system.l2.tags.occ_percent::cpu.inst         0.000318                       # Average percentage of cache occupancy
system.l2.tags.occ_percent::cpu.data         0.000083                       # Average percentage of cache occupancy
system.l2.tags.occ_percent::total            0.967885                       # Average percentage of cache occupancy
system.l2.ReadReq_hits::switch_cpus.inst           73                       # number of ReadReq hits
system.l2.ReadReq_hits::switch_cpus.data        30746                       # number of ReadReq hits
system.l2.ReadReq_hits::total                   30819                       # number of ReadReq hits
system.l2.Writeback_hits::writebacks            97093                       # number of Writeback hits
system.l2.Writeback_hits::total                 97093                       # number of Writeback hits
system.l2.ReadExReq_hits::switch_cpus.data        14045                       # number of ReadExReq hits
system.l2.ReadExReq_hits::total                 14045                       # number of ReadExReq hits
system.l2.demand_hits::switch_cpus.inst            73                       # number of demand (read+write) hits
system.l2.demand_hits::switch_cpus.data         44791                       # number of demand (read+write) hits
system.l2.demand_hits::total                    44864                       # number of demand (read+write) hits
system.l2.overall_hits::switch_cpus.inst           73                       # number of overall hits
system.l2.overall_hits::switch_cpus.data        44791                       # number of overall hits
system.l2.overall_hits::total                   44864                       # number of overall hits
system.l2.ReadReq_misses::switch_cpus.inst          972                       # number of ReadReq misses
system.l2.ReadReq_misses::switch_cpus.data        74393                       # number of ReadReq misses
system.l2.ReadReq_misses::total                 75365                       # number of ReadReq misses
system.l2.ReadExReq_misses::switch_cpus.data        74330                       # number of ReadExReq misses
system.l2.ReadExReq_misses::total               74330                       # number of ReadExReq misses
system.l2.demand_misses::switch_cpus.inst          972                       # number of demand (read+write) misses
system.l2.demand_misses::switch_cpus.data       148723                       # number of demand (read+write) misses
system.l2.demand_misses::total                 149695                       # number of demand (read+write) misses
system.l2.overall_misses::switch_cpus.inst          972                       # number of overall misses
system.l2.overall_misses::switch_cpus.data       148723                       # number of overall misses
system.l2.overall_misses::total                149695                       # number of overall misses
system.l2.ReadReq_miss_latency::switch_cpus.inst     65990250                       # number of ReadReq miss cycles
system.l2.ReadReq_miss_latency::switch_cpus.data   4584686750                       # number of ReadReq miss cycles
system.l2.ReadReq_miss_latency::total      4650677000                       # number of ReadReq miss cycles
system.l2.ReadExReq_miss_latency::switch_cpus.data   4609322000                       # number of ReadExReq miss cycles
system.l2.ReadExReq_miss_latency::total    4609322000                       # number of ReadExReq miss cycles
system.l2.demand_miss_latency::switch_cpus.inst     65990250                       # number of demand (read+write) miss cycles
system.l2.demand_miss_latency::switch_cpus.data   9194008750                       # number of demand (read+write) miss cycles
system.l2.demand_miss_latency::total       9259999000                       # number of demand (read+write) miss cycles
system.l2.overall_miss_latency::switch_cpus.inst     65990250                       # number of overall miss cycles
system.l2.overall_miss_latency::switch_cpus.data   9194008750                       # number of overall miss cycles
system.l2.overall_miss_latency::total      9259999000                       # number of overall miss cycles
system.l2.ReadReq_accesses::switch_cpus.inst         1045                       # number of ReadReq accesses(hits+misses)
system.l2.ReadReq_accesses::switch_cpus.data       105139                       # number of ReadReq accesses(hits+misses)
system.l2.ReadReq_accesses::total              106184                       # number of ReadReq accesses(hits+misses)
system.l2.Writeback_accesses::writebacks        97093                       # number of Writeback accesses(hits+misses)
system.l2.Writeback_accesses::total             97093                       # number of Writeback accesses(hits+misses)
system.l2.ReadExReq_accesses::switch_cpus.data        88375                       # number of ReadExReq accesses(hits+misses)
system.l2.ReadExReq_accesses::total             88375                       # number of ReadExReq accesses(hits+misses)
system.l2.demand_accesses::switch_cpus.inst         1045                       # number of demand (read+write) accesses
system.l2.demand_accesses::switch_cpus.data       193514                       # number of demand (read+write) accesses
system.l2.demand_accesses::total               194559                       # number of demand (read+write) accesses
[...]
system.cpu.icache.overall_mshr_hits::total          413                       # number of overall MSHR hits
system.cpu.icache.ReadReq_mshr_misses::switch_cpus.inst         1045                       # number of ReadReq MSHR misses
system.cpu.icache.ReadReq_mshr_misses::total         1045                       # number of ReadReq MSHR misses
system.cpu.icache.demand_mshr_misses::switch_cpus.inst         1045                       # number of demand (read+write) MSHR misses
system.cpu.icache.demand_mshr_misses::total         1045                       # number of demand (read+write) MSHR misses
system.cpu.icache.overall_mshr_misses::switch_cpus.inst         1045                       # number of overall MSHR misses
system.cpu.icache.overall_mshr_misses::total         1045                       # number of overall MSHR misses
system.cpu.icache.ReadReq_mshr_miss_latency::switch_cpus.inst     67773750                       # number of ReadReq MSHR miss cycles
system.cpu.icache.ReadReq_mshr_miss_latency::total     67773750                       # number of ReadReq MSHR miss cycles
system.cpu.icache.demand_mshr_miss_latency::switch_cpus.inst     67773750                       # number of demand (read+write) MSHR miss cycles
system.cpu.icache.demand_mshr_miss_latency::total     67773750                       # number of demand (read+write) MSHR miss cycles
system.cpu.icache.overall_mshr_miss_latency::switch_cpus.inst     67773750                       # number of overall MSHR miss cycles
system.cpu.icache.overall_mshr_miss_latency::total     67773750                       # number of overall MSHR miss cycles
system.cpu.icache.ReadReq_mshr_miss_rate::switch_cpus.inst     0.000045                       # mshr miss rate for ReadReq accesses
system.cpu.icache.ReadReq_mshr_miss_rate::total     0.000045                       # mshr miss rate for ReadReq accesses
system.cpu.icache.demand_mshr_miss_rate::switch_cpus.inst     0.000045                       # mshr miss rate for demand accesses
system.cpu.icache.demand_mshr_miss_rate::total     0.000045                       # mshr miss rate for demand accesses
system.cpu.icache.overall_mshr_miss_rate::switch_cpus.inst     0.000045                       # mshr miss rate for overall accesses
system.cpu.icache.overall_mshr_miss_rate::total     0.000045                       # mshr miss rate for overall accesses
system.cpu.icache.ReadReq_avg_mshr_miss_latency::switch_cpus.inst 64855.263158                       # average ReadReq mshr miss latency
system.cpu.icache.ReadReq_avg_mshr_miss_latency::total 64855.263158                       # average ReadReq mshr miss latency
system.cpu.icache.demand_avg_mshr_miss_latency::switch_cpus.inst 64855.263158                       # average overall mshr miss latency
system.cpu.icache.demand_avg_mshr_miss_latency::total 64855.263158                       # average overall mshr miss latency
system.cpu.icache.overall_avg_mshr_miss_latency::switch_cpus.inst 64855.263158                       # average overall mshr miss latency
system.cpu.icache.overall_avg_mshr_miss_latency::total 64855.263158                       # average overall mshr miss latency
system.cpu.icache.no_allocate_misses                0                       # Number of misses that were no-allocate
system.cpu.dcache.tags.replacements            193080                       # number of replacements
system.cpu.dcache.tags.tagsinuse           511.420972                       # Cycle average of tags in use
system.cpu.dcache.tags.total_refs            87010691                       # Total number of references to valid blocks.
system.cpu.dcache.tags.sampled_refs            193592                       # Sample count of references to valid blocks.
system.cpu.dcache.tags.avg_refs            449.453960                       # Average number of references to valid blocks.
system.cpu.dcache.tags.warmup_cycle         166148250                       # Cycle when the warmup percentage was hit.
system.cpu.dcache.tags.occ_blocks::switch_cpus.data   511.366156                       # Average occupied blocks per requestor
system.cpu.dcache.tags.occ_blocks::cpu.data     0.054816                       # Average occupied blocks per requestor
system.cpu.dcache.tags.occ_percent::switch_cpus.data     0.998762                       # Average percentage of cache occupancy
system.cpu.dcache.tags.occ_percent::cpu.data     0.000107                       # Average percentage of cache occupancy
system.cpu.dcache.tags.occ_percent::total     0.998869                       # Average percentage of cache occupancy
system.cpu.dcache.ReadReq_hits::switch_cpus.data     62866354                       # number of ReadReq hits
system.cpu.dcache.ReadReq_hits::total        62866354                       # number of ReadReq hits
system.cpu.dcache.WriteReq_hits::switch_cpus.data     24141570                       # number of WriteReq hits
system.cpu.dcache.WriteReq_hits::total       24141570                       # number of WriteReq hits
system.cpu.dcache.LoadLockedReq_hits::switch_cpus.data          915                       # number of LoadLockedReq hits
system.cpu.dcache.LoadLockedReq_hits::total          915                       # number of LoadLockedReq hits
system.cpu.dcache.StoreCondReq_hits::switch_cpus.data         1351                       # number of StoreCondReq hits
system.cpu.dcache.StoreCondReq_hits::total         1351                       # number of StoreCondReq hits
system.cpu.dcache.demand_hits::switch_cpus.data     87007924                       # number of demand (read+write) hits
system.cpu.dcache.demand_hits::total         87007924                       # number of demand (read+write) hits
system.cpu.dcache.overall_hits::switch_cpus.data     87007924                       # number of overall hits
system.cpu.dcache.overall_hits::total        87007924                       # number of overall hits
system.cpu.dcache.ReadReq_misses::switch_cpus.data       368919                       # number of ReadReq misses
system.cpu.dcache.ReadReq_misses::total        368919                       # number of ReadReq misses
system.cpu.dcache.WriteReq_misses::switch_cpus.data       308497                       # number of WriteReq misses
system.cpu.dcache.WriteReq_misses::total       308497                       # number of WriteReq misses
system.cpu.dcache.LoadLockedReq_misses::switch_cpus.data          439                       # number of LoadLockedReq misses
system.cpu.dcache.LoadLockedReq_misses::total          439                       # number of LoadLockedReq misses
system.cpu.dcache.demand_misses::switch_cpus.data       677416                       # number of demand (read+write) misses
system.cpu.dcache.demand_misses::total         677416                       # number of demand (read+write) misses
system.cpu.dcache.overall_misses::switch_cpus.data       677416                       # number of overall misses
system.cpu.dcache.overall_misses::total        677416                       # number of overall misses
system.cpu.dcache.ReadReq_miss_latency::switch_cpus.data  17140587750                       # number of ReadReq miss cycles
system.cpu.dcache.ReadReq_miss_latency::total  17140587750                       # number of ReadReq miss cycles
system.cpu.dcache.WriteReq_miss_latency::switch_cpus.data  13902458454                       # number of WriteReq miss cycles
system.cpu.dcache.WriteReq_miss_latency::total  13902458454                       # number of WriteReq miss cycles
system.cpu.dcache.LoadLockedReq_miss_latency::switch_cpus.data      6262000                       # number of LoadLockedReq miss cycles
system.cpu.dcache.LoadLockedReq_miss_latency::total      6262000                       # number of LoadLockedReq miss cycles
system.cpu.dcache.demand_miss_latency::switch_cpus.data  31043046204                       # number of demand (read+write) miss cycles
system.cpu.dcache.demand_miss_latency::total  31043046204                       # number of demand (read+write) miss cycles
system.cpu.dcache.overall_miss_latency::switch_cpus.data  31043046204                       # number of overall miss cycles
system.cpu.dcache.overall_miss_latency::total  31043046204                       # number of overall miss cycles
system.cpu.dcache.ReadReq_accesses::switch_cpus.data     63235273                       # number of ReadReq accesses(hits+misses)
system.cpu.dcache.ReadReq_accesses::total     63235273                       # number of ReadReq accesses(hits+misses)
system.cpu.dcache.WriteReq_accesses::switch_cpus.data     24450067                       # number of WriteReq accesses(hits+misses)
system.cpu.dcache.WriteReq_accesses::total     24450067                       # number of WriteReq accesses(hits+misses)
system.cpu.dcache.LoadLockedReq_accesses::switch_cpus.data         1354                       # number of LoadLockedReq accesses(hits+misses)
system.cpu.dcache.LoadLockedReq_accesses::total         1354                       # number of LoadLockedReq accesses(hits+misses)
system.cpu.dcache.StoreCondReq_accesses::switch_cpus.data         1351                       # number of StoreCondReq accesses(hits+misses)
system.cpu.dcache.StoreCondReq_accesses::total         1351                       # number of StoreCondReq accesses(hits+misses)
system.cpu.dcache.demand_accesses::switch_cpus.data     87685340                       # number of demand (read+write) accesses
system.cpu.dcache.demand_accesses::total     87685340                       # number of demand (read+write) accesses
system.cpu.dcache.overall_accesses::switch_cpus.data     87685340                       # number of overall (read+write) accesses
system.cpu.dcache.overall_accesses::total     87685340                       # number of overall (read+write) accesses
system.cpu.dcache.ReadReq_miss_rate::switch_cpus.data     0.005834                       # miss rate for ReadReq accesses
system.cpu.dcache.ReadReq_miss_rate::total     0.005834                       # miss rate for ReadReq accesses
system.cpu.dcache.WriteReq_miss_rate::switch_cpus.data     0.012617                       # miss rate for WriteReq accesses
system.cpu.dcache.WriteReq_miss_rate::total     0.012617                       # miss rate for WriteReq accesses
system.cpu.dcache.LoadLockedReq_miss_rate::switch_cpus.data     0.324225                       # miss rate for LoadLockedReq accesses
system.cpu.dcache.LoadLockedReq_miss_rate::total     0.324225                       # miss rate for LoadLockedReq accesses
system.cpu.dcache.demand_miss_rate::switch_cpus.data     0.007726                       # miss rate for demand accesses
system.cpu.dcache.demand_miss_rate::total     0.007726                       # miss rate for demand accesses
system.cpu.dcache.overall_miss_rate::switch_cpus.data     0.007726                       # miss rate for overall accesses
system.cpu.dcache.overall_miss_rate::total     0.007726                       # miss rate for overall accesses
system.cpu.dcache.ReadReq_avg_miss_latency::switch_cpus.data 46461.656217                       # average ReadReq miss latency
system.cpu.dcache.ReadReq_avg_miss_latency::total 46461.656217                       # average ReadReq miss latency
system.cpu.dcache.WriteReq_avg_miss_latency::switch_cpus.data 45065.133385                       # average WriteReq miss latency
system.cpu.dcache.WriteReq_avg_miss_latency::total 45065.133385                       # average WriteReq miss latency
system.cpu.dcache.LoadLockedReq_avg_miss_latency::switch_cpus.data 14264.236902                       # average LoadLockedReq miss latency
system.cpu.dcache.LoadLockedReq_avg_miss_latency::total 14264.236902                       # average LoadLockedReq miss latency
system.cpu.dcache.demand_avg_miss_latency::switch_cpus.data 45825.676104                       # average overall miss latency
system.cpu.dcache.demand_avg_miss_latency::total 45825.676104                       # average overall miss latency
system.cpu.dcache.overall_avg_miss_latency::switch_cpus.data 45825.676104                       # average overall miss latency
system.cpu.dcache.overall_avg_miss_latency::total 45825.676104                       # average overall miss latency
system.cpu.dcache.blocked_cycles::no_mshrs         5221                       # number of cycles access was blocked
system.cpu.dcache.blocked_cycles::no_targets            0                       # number of cycles access was blocked
system.cpu.dcache.blocked::no_mshrs               100                       # number of cycles access was blocked
system.cpu.dcache.blocked::no_targets               0                       # number of cycles access was blocked
system.cpu.dcache.avg_blocked_cycles::no_mshrs    52.210000                       # average number of cycles each access was blocked
system.cpu.dcache.avg_blocked_cycles::no_targets          nan                       # average number of cycles each access was blocked
system.cpu.dcache.fast_writes                       0                       # number of fast writes performed
system.cpu.dcache.cache_copies                      0                       # number of cache copies performed
system.cpu.dcache.writebacks::writebacks        97093                       # number of writebacks
system.cpu.dcache.writebacks::total             97093                       # number of writebacks
system.cpu.dcache.ReadReq_mshr_hits::switch_cpus.data       263776                       # number of ReadReq MSHR hits
system.cpu.dcache.ReadReq_mshr_hits::total       263776                       # number of ReadReq MSHR hits
system.cpu.dcache.WriteReq_mshr_hits::switch_cpus.data       220128                       # number of WriteReq MSHR hits
system.cpu.dcache.WriteReq_mshr_hits::total       220128                       # number of WriteReq MSHR hits
system.cpu.dcache.LoadLockedReq_mshr_hits::switch_cpus.data          437                       # number of LoadLockedReq MSHR hits
system.cpu.dcache.LoadLockedReq_mshr_hits::total          437                       # number of LoadLockedReq MSHR hits
system.cpu.dcache.demand_mshr_hits::switch_cpus.data       483904                       # number of demand (read+write) MSHR hits
system.cpu.dcache.demand_mshr_hits::total       483904                       # number of demand (read+write) MSHR hits
system.cpu.dcache.overall_mshr_hits::switch_cpus.data       483904                       # number of overall MSHR hits
system.cpu.dcache.overall_mshr_hits::total       483904                       # number of overall MSHR hits
system.cpu.dcache.ReadReq_mshr_misses::switch_cpus.data       105143                       # number of ReadReq MSHR misses
system.cpu.dcache.ReadReq_mshr_misses::total       105143                       # number of ReadReq MSHR misses
system.cpu.dcache.WriteReq_mshr_misses::switch_cpus.data        88369                       # number of WriteReq MSHR misses
system.cpu.dcache.WriteReq_mshr_misses::total        88369                       # number of WriteReq MSHR misses
system.cpu.dcache.LoadLockedReq_mshr_misses::switch_cpus.data            2                       # number of LoadLockedReq MSHR misses
system.cpu.dcache.LoadLockedReq_mshr_misses::total            2                       # number of LoadLockedReq MSHR misses
system.cpu.dcache.demand_mshr_misses::switch_cpus.data       193512                       # number of demand (read+write) MSHR misses
system.cpu.dcache.demand_mshr_misses::total       193512                       # number of demand (read+write) MSHR misses
system.cpu.dcache.overall_mshr_misses::switch_cpus.data       193512                       # number of overall MSHR misses
system.cpu.dcache.overall_mshr_misses::total       193512                       # number of overall MSHR misses
system.cpu.dcache.ReadReq_mshr_miss_latency::switch_cpus.data   4998756750                       # number of ReadReq MSHR miss cycles
system.cpu.dcache.ReadReq_mshr_miss_latency::total   4998756750                       # number of ReadReq MSHR miss cycles
system.cpu.dcache.WriteReq_mshr_miss_latency::switch_cpus.data   4838954000                       # number of WriteReq MSHR miss cycles
system.cpu.dcache.WriteReq_mshr_miss_latency::total   4838954000                       # number of WriteReq MSHR miss cycles
system.cpu.dcache.LoadLockedReq_mshr_miss_latency::switch_cpus.data       122500                       # number of LoadLockedReq MSHR miss cycles
system.cpu.dcache.LoadLockedReq_mshr_miss_latency::total       122500                       # number of LoadLockedReq MSHR miss cycles
system.cpu.dcache.demand_mshr_miss_latency::switch_cpus.data   9837710750                       # number of demand (read+write) MSHR miss cycles
system.cpu.dcache.demand_mshr_miss_latency::total   9837710750                       # number of demand (read+write) MSHR miss cycles
system.cpu.dcache.overall_mshr_miss_latency::switch_cpus.data   9837710750                       # number of overall MSHR miss cycles
system.cpu.dcache.overall_mshr_miss_latency::total   9837710750                       # number of overall MSHR miss cycles
system.cpu.dcache.ReadReq_mshr_miss_rate::switch_cpus.data     0.001663                       # mshr miss rate for ReadReq accesses
system.cpu.dcache.ReadReq_mshr_miss_rate::total     0.001663                       # mshr miss rate for ReadReq accesses
system.cpu.dcache.WriteReq_mshr_miss_rate::switch_cpus.data     0.003614                       # mshr miss rate for WriteReq accesses
system.cpu.dcache.WriteReq_mshr_miss_rate::total     0.003614                       # mshr miss rate for WriteReq accesses
system.cpu.dcache.LoadLockedReq_mshr_miss_rate::switch_cpus.data     0.001477                       # mshr miss rate for LoadLockedReq accesses
system.cpu.dcache.LoadLockedReq_mshr_miss_rate::total     0.001477                       # mshr miss rate for LoadLockedReq accesses
system.cpu.dcache.demand_mshr_miss_rate::switch_cpus.data     0.002207                       # mshr miss rate for demand accesses
system.cpu.dcache.demand_mshr_miss_rate::total     0.002207                       # mshr miss rate for demand accesses
system.cpu.dcache.overall_mshr_miss_rate::switch_cpus.data     0.002207                       # mshr miss rate for overall accesses
system.cpu.dcache.overall_mshr_miss_rate::total     0.002207                       # mshr miss rate for overall accesses
system.cpu.dcache.ReadReq_avg_mshr_miss_latency::switch_cpus.data 47542.458842                       # average ReadReq mshr miss latency
system.cpu.dcache.ReadReq_avg_mshr_miss_latency::total 47542.458842                       # average ReadReq mshr miss latency
system.cpu.dcache.WriteReq_avg_mshr_miss_latency::switch_cpus.data 54758.501284                       # average WriteReq mshr miss latency
system.cpu.dcache.WriteReq_avg_mshr_miss_latency::total 54758.501284                       # average WriteReq mshr miss latency
system.cpu.dcache.LoadLockedReq_avg_mshr_miss_latency::switch_cpus.data        61250                       # average LoadLockedReq mshr miss latency
system.cpu.dcache.LoadLockedReq_avg_mshr_miss_latency::total        61250                       # average LoadLockedReq mshr miss latency
system.cpu.dcache.demand_avg_mshr_miss_latency::switch_cpus.data 50837.729702                       # average overall mshr miss latency
system.cpu.dcache.demand_avg_mshr_miss_latency::total 50837.729702                       # average overall mshr miss latency
system.cpu.dcache.overall_avg_mshr_miss_latency::switch_cpus.data 50837.729702                       # average overall mshr miss latency
system.cpu.dcache.overall_avg_mshr_miss_latency::total 50837.729702                       # average overall mshr miss latency
system.cpu.dcache.no_allocate_misses                0                       # Number of misses that were no-allocate

---------- End Simulation Statistics   ----------
