
---------- Begin Simulation Statistics ----------
sim_seconds                                  0.184880                       # Number of seconds simulated
sim_ticks                                184880409000                       # Number of ticks simulated
final_tick                               184882119500                       # Number of ticks from beginning of simulation (restored from checkpoints and never reset)
sim_freq                                 1000000000000                       # Frequency of simulated ticks
host_inst_rate                                  59208                       # Simulator instruction rate (inst/s)
host_op_rate                                    59208                       # Simulator op (including micro ops) rate (op/s)
host_tick_rate                               12896980                       # Simulator tick rate (ticks/s)
host_mem_usage                                 750380                       # Number of bytes of host memory used
host_seconds                                 14335.17                       # Real time elapsed on the host
sim_insts                                   848760841                       # Number of instructions simulated
sim_ops                                     848760841                       # Number of ops (including micro ops) simulated
system.physmem.bytes_read::switch_cpus.inst        62720                       # Number of bytes read from this memory
system.physmem.bytes_read::switch_cpus.data     31489472                       # Number of bytes read from this memory
system.physmem.bytes_read::total             31552192                       # Number of bytes read from this memory
system.physmem.bytes_inst_read::switch_cpus.inst        62720                       # Number of instructions bytes read from this memory
system.physmem.bytes_inst_read::total           62720                       # Number of instructions bytes read from this memory
system.physmem.bytes_written::writebacks     15738048                       # Number of bytes written to this memory
system.physmem.bytes_written::total          15738048                       # Number of bytes written to this memory
system.physmem.num_reads::switch_cpus.inst          980                       # Number of read requests responded to by this memory
system.physmem.num_reads::switch_cpus.data       492023                       # Number of read requests responded to by this memory
system.physmem.num_reads::total                493003                       # Number of read requests responded to by this memory
system.physmem.num_writes::writebacks          245907                       # Number of write requests responded to by this memory
system.physmem.num_writes::total               245907                       # Number of write requests responded to by this memory
system.physmem.bw_read::switch_cpus.inst       339246                       # Total read bandwidth from this memory (bytes/s)
system.physmem.bw_read::switch_cpus.data    170323466                       # Total read bandwidth from this memory (bytes/s)
system.physmem.bw_read::total               170662712                       # Total read bandwidth from this memory (bytes/s)
system.physmem.bw_inst_read::switch_cpus.inst       339246                       # Instruction read bandwidth from this memory (bytes/s)
system.physmem.bw_inst_read::total             339246                       # Instruction read bandwidth from this memory (bytes/s)
system.physmem.bw_write::writebacks          85125558                       # Write bandwidth from this memory (bytes/s)
system.physmem.bw_write::total               85125558                       # Write bandwidth from this memory (bytes/s)
system.physmem.bw_total::writebacks          85125558                       # Total bandwidth to/from this memory (bytes/s)
system.physmem.bw_total::switch_cpus.inst       339246                       # Total bandwidth to/from this memory (bytes/s)
system.physmem.bw_total::switch_cpus.data    170323466                       # Total bandwidth to/from this memory (bytes/s)
system.physmem.bw_total::total              255788270                       # Total bandwidth to/from this memory (bytes/s)
system.physmem.readReqs                        493004                       # Total number of read requests seen
system.physmem.writeReqs                       245907                       # Total number of write requests seen
system.physmem.cpureqs                         738911                       # Reqs generatd by CPU via cache - shady
system.physmem.bytesRead                     31552192                       # Total number of bytes read from memory
system.physmem.bytesWritten                  15738048                       # Total number of bytes written to memory
system.physmem.bytesConsumedRd               31552192                       # bytesRead derated as per pkt->getSize()
system.physmem.bytesConsumedWr               15738048                       # bytesWritten derated as per pkt->getSize()
system.physmem.servicedByWrQ                       14                       # Number of read reqs serviced by write Q
system.physmem.neitherReadNorWrite                  0                       # Reqs where no action is needed
system.physmem.perBankRdReqs::0                 30901                       # Track reads on a per bank basis
system.physmem.perBankRdReqs::1                 30792                       # Track reads on a per bank basis
system.physmem.perBankRdReqs::2                 30865                       # Track reads on a per bank basis
system.physmem.perBankRdReqs::3                 30735                       # Track reads on a per bank basis
system.physmem.perBankRdReqs::4                 30763                       # Track reads on a per bank basis
system.physmem.perBankRdReqs::5                 30769                       # Track reads on a per bank basis
system.physmem.perBankRdReqs::6                 30767                       # Track reads on a per bank basis
system.physmem.perBankRdReqs::7                 30810                       # Track reads on a per bank basis
system.physmem.perBankRdReqs::8                 30747                       # Track reads on a per bank basis
system.physmem.perBankRdReqs::9                 30759                       # Track reads on a per bank basis
system.physmem.perBankRdReqs::10                30766                       # Track reads on a per bank basis
system.physmem.perBankRdReqs::11                30883                       # Track reads on a per bank basis
system.physmem.perBankRdReqs::12                30911                       # Track reads on a per bank basis
system.physmem.perBankRdReqs::13                30845                       # Track reads on a per bank basis
system.physmem.perBankRdReqs::14                30773                       # Track reads on a per bank basis
system.physmem.perBankRdReqs::15                30904                       # Track reads on a per bank basis
system.physmem.perBankWrReqs::0                 15361                       # Track writes on a per bank basis
system.physmem.perBankWrReqs::1                 15361                       # Track writes on a per bank basis
system.physmem.perBankWrReqs::2                 15360                       # Track writes on a per bank basis
system.physmem.perBankWrReqs::3                 15360                       # Track writes on a per bank basis
system.physmem.perBankWrReqs::4                 15368                       # Track writes on a per bank basis
system.physmem.perBankWrReqs::5                 15406                       # Track writes on a per bank basis
system.physmem.perBankWrReqs::6                 15360                       # Track writes on a per bank basis
system.physmem.perBankWrReqs::7                 15360                       # Track writes on a per bank basis
system.physmem.perBankWrReqs::8                 15360                       # Track writes on a per bank basis
system.physmem.perBankWrReqs::9                 15360                       # Track writes on a per bank basis
system.physmem.perBankWrReqs::10                15361                       # Track writes on a per bank basis
system.physmem.perBankWrReqs::11                15409                       # Track writes on a per bank basis
system.physmem.perBankWrReqs::12                15395                       # Track writes on a per bank basis
system.physmem.perBankWrReqs::13                15360                       # Track writes on a per bank basis
system.physmem.perBankWrReqs::14                15366                       # Track writes on a per bank basis
system.physmem.perBankWrReqs::15                15360                       # Track writes on a per bank basis
system.physmem.numRdRetry                           0                       # Number of times rd buffer was full causing retry
system.physmem.numWrRetry                           0                       # Number of times wr buffer was full causing retry
system.physmem.totGap                    184880379000                       # Total gap between requests
system.physmem.readPktSize::0                       0                       # Categorize read packet sizes
system.physmem.readPktSize::1                       0                       # Categorize read packet sizes
system.physmem.readPktSize::2                       0                       # Categorize read packet sizes
system.physmem.readPktSize::3                       0                       # Categorize read packet sizes
system.physmem.readPktSize::4                       0                       # Categorize read packet sizes
system.physmem.readPktSize::5                       0                       # Categorize read packet sizes
system.physmem.readPktSize::6                  493004                       # Categorize read packet sizes
system.physmem.writePktSize::0                      0                       # Categorize write packet sizes
system.physmem.writePktSize::1                      0                       # Categorize write packet sizes
system.physmem.writePktSize::2                      0                       # Categorize write packet sizes
system.physmem.writePktSize::3                      0                       # Categorize write packet sizes
system.physmem.writePktSize::4                      0                       # Categorize write packet sizes
system.physmem.writePktSize::5                      0                       # Categorize write packet sizes
system.physmem.writePktSize::6                 245907                       # Categorize write packet sizes
system.physmem.rdQLenPdf::0                    492432                       # What read queue length does an incoming req see
system.physmem.rdQLenPdf::1                       422                       # What read queue length does an incoming req see
system.physmem.rdQLenPdf::2                       110                       # What read queue length does an incoming req see
system.physmem.rdQLenPdf::3                        23                       # What read queue length does an incoming req see
system.physmem.rdQLenPdf::4                         3                       # What read queue length does an incoming req see
system.physmem.rdQLenPdf::5                         0                       # What read queue length does an incoming req see
system.physmem.rdQLenPdf::6                         0                       # What read queue length does an incoming req see
system.physmem.rdQLenPdf::7                         0                       # What read queue length does an incoming req see
system.physmem.rdQLenPdf::8                         0                       # What read queue length does an incoming req see
system.physmem.rdQLenPdf::9                         0                       # What read queue length does an incoming req see
system.physmem.rdQLenPdf::10                        0                       # What read queue length does an incoming req see
system.physmem.rdQLenPdf::11                        0                       # What read queue length does an incoming req see
system.physmem.rdQLenPdf::12                        0                       # What read queue length does an incoming req see
system.physmem.rdQLenPdf::13                        0                       # What read queue length does an incoming req see
system.physmem.rdQLenPdf::14                        0                       # What read queue length does an incoming req see
system.physmem.rdQLenPdf::15                        0                       # What read queue length does an incoming req see
system.physmem.rdQLenPdf::16                        0                       # What read queue length does an incoming req see
system.physmem.rdQLenPdf::17                        0                       # What read queue length does an incoming req see
system.physmem.rdQLenPdf::18                        0                       # What read queue length does an incoming req see
system.physmem.rdQLenPdf::19                        0                       # What read queue length does an incoming req see
system.physmem.rdQLenPdf::20                        0                       # What read queue length does an incoming req see
system.physmem.rdQLenPdf::21                        0                       # What read queue length does an incoming req see
system.physmem.rdQLenPdf::22                        0                       # What read queue length does an incoming req see
system.physmem.rdQLenPdf::23                        0                       # What read queue length does an incoming req see
system.physmem.rdQLenPdf::24                        0                       # What read queue length does an incoming req see
system.physmem.rdQLenPdf::25                        0                       # What read queue length does an incoming req see
system.physmem.rdQLenPdf::26                        0                       # What read queue length does an incoming req see
system.physmem.rdQLenPdf::27                        0                       # What read queue length does an incoming req see
system.physmem.rdQLenPdf::28                        0                       # What read queue length does an incoming req see
system.physmem.rdQLenPdf::29                        0                       # What read queue length does an incoming req see
system.physmem.rdQLenPdf::30                        0                       # What read queue length does an incoming req see
system.physmem.rdQLenPdf::31                        0                       # What read queue length does an incoming req see
system.physmem.wrQLenPdf::0                     10683                       # What write queue length does an incoming req see
system.physmem.wrQLenPdf::1                     10691                       # What write queue length does an incoming req see
system.physmem.wrQLenPdf::2                     10692                       # What write queue length does an incoming req see
system.physmem.wrQLenPdf::3                     10692                       # What write queue length does an incoming req see
system.physmem.wrQLenPdf::4                     10692                       # What write queue length does an incoming req see
system.physmem.wrQLenPdf::5                     10692                       # What write queue length does an incoming req see
system.physmem.wrQLenPdf::6                     10692                       # What write queue length does an incoming req see
system.physmem.wrQLenPdf::7                     10692                       # What write queue length does an incoming req see
system.physmem.wrQLenPdf::8                     10692                       # What write queue length does an incoming req see
system.physmem.wrQLenPdf::9                     10692                       # What write queue length does an incoming req see
system.physmem.wrQLenPdf::10                    10692                       # What write queue length does an incoming req see
system.physmem.wrQLenPdf::11                    10692                       # What write queue length does an incoming req see
system.physmem.wrQLenPdf::12                    10692                       # What write queue length does an incoming req see
system.physmem.wrQLenPdf::13                    10692                       # What write queue length does an incoming req see
system.physmem.wrQLenPdf::14                    10691                       # What write queue length does an incoming req see
system.physmem.wrQLenPdf::15                    10691                       # What write queue length does an incoming req see
system.physmem.wrQLenPdf::16                    10691                       # What write queue length does an incoming req see
system.physmem.wrQLenPdf::17                    10691                       # What write queue length does an incoming req see
system.physmem.wrQLenPdf::18                    10691                       # What write queue length does an incoming req see
system.physmem.wrQLenPdf::19                    10691                       # What write queue length does an incoming req see
system.physmem.wrQLenPdf::20                    10691                       # What write queue length does an incoming req see
system.physmem.wrQLenPdf::21                    10691                       # What write queue length does an incoming req see
system.physmem.wrQLenPdf::22                    10691                       # What write queue length does an incoming req see
system.physmem.wrQLenPdf::23                        9                       # What write queue length does an incoming req see
system.physmem.wrQLenPdf::24                        1                       # What write queue length does an incoming req see
system.physmem.wrQLenPdf::25                        0                       # What write queue length does an incoming req see
system.physmem.wrQLenPdf::26                        0                       # What write queue length does an incoming req see
system.physmem.wrQLenPdf::27                        0                       # What write queue length does an incoming req see
system.physmem.wrQLenPdf::28                        0                       # What write queue length does an incoming req see
system.physmem.wrQLenPdf::29                        0                       # What write queue length does an incoming req see
system.physmem.wrQLenPdf::30                        0                       # What write queue length does an incoming req see
system.physmem.wrQLenPdf::31                        0                       # What write queue length does an incoming req see
system.physmem.bytesPerActivate::samples        35264                       # Bytes accessed per row activation
system.physmem.bytesPerActivate::mean     1339.539020                       # Bytes accessed per row activation
system.physmem.bytesPerActivate::gmean     622.912236                       # Bytes accessed per row activation
system.physmem.bytesPerActivate::stdev    1983.536191                       # Bytes accessed per row activation
system.physmem.bytesPerActivate::64-65           4219     11.96%     11.96% # Bytes accessed per row activation
system.physmem.bytesPerActivate::128-129         3624     10.28%     22.24% # Bytes accessed per row activation
system.physmem.bytesPerActivate::192-193          561      1.59%     23.83% # Bytes accessed per row activation
system.physmem.bytesPerActivate::256-257          649      1.84%     25.67% # Bytes accessed per row activation
system.physmem.bytesPerActivate::320-321          529      1.50%     27.17% # Bytes accessed per row activation
system.physmem.bytesPerActivate::384-385          689      1.95%     29.13% # Bytes accessed per row activation
system.physmem.bytesPerActivate::448-449         1566      4.44%     33.57% # Bytes accessed per row activation
system.physmem.bytesPerActivate::512-513         2246      6.37%     39.94% # Bytes accessed per row activation
system.physmem.bytesPerActivate::576-577          647      1.83%     41.77% # Bytes accessed per row activation
system.physmem.bytesPerActivate::640-641          566      1.61%     43.38% # Bytes accessed per row activation
system.physmem.bytesPerActivate::704-705          518      1.47%     44.84% # Bytes accessed per row activation
system.physmem.bytesPerActivate::768-769          629      1.78%     46.63% # Bytes accessed per row activation
system.physmem.bytesPerActivate::832-833          592      1.68%     48.31% # Bytes accessed per row activation
system.physmem.bytesPerActivate::896-897          823      2.33%     50.64% # Bytes accessed per row activation
system.physmem.bytesPerActivate::960-961         3219      9.13%     59.77% # Bytes accessed per row activation
system.physmem.bytesPerActivate::1024-1025         1917      5.44%     65.21% # Bytes accessed per row activation
system.physmem.bytesPerActivate::1088-1089          514      1.46%     66.66% # Bytes accessed per row activation
system.physmem.bytesPerActivate::1152-1153          516      1.46%     68.13% # Bytes accessed per row activation
system.physmem.bytesPerActivate::1216-1217          497      1.41%     69.54% # Bytes accessed per row activation
system.physmem.bytesPerActivate::1280-1281          533      1.51%     71.05% # Bytes accessed per row activation
system.physmem.bytesPerActivate::1344-1345          531      1.51%     72.55% # Bytes accessed per row activation
system.physmem.bytesPerActivate::1408-1409          595      1.69%     74.24% # Bytes accessed per row activation
system.physmem.bytesPerActivate::1472-1473         4741     13.44%     87.68% # Bytes accessed per row activation
system.physmem.bytesPerActivate::1536-1537          160      0.45%     88.14% # Bytes accessed per row activation
system.physmem.bytesPerActivate::1600-1601          100      0.28%     88.42% # Bytes accessed per row activation
system.physmem.bytesPerActivate::1664-1665          100      0.28%     88.71% # Bytes accessed per row activation
system.physmem.bytesPerActivate::1728-1729           79      0.22%     88.93% # Bytes accessed per row activation
system.physmem.bytesPerActivate::1792-1793           75      0.21%     89.14% # Bytes accessed per row activation
system.physmem.bytesPerActivate::1856-1857           68      0.19%     89.33% # Bytes accessed per row activation
system.physmem.bytesPerActivate::1920-1921           64      0.18%     89.52% # Bytes accessed per row activation
system.physmem.bytesPerActivate::1984-1985           86      0.24%     89.76% # Bytes accessed per row activation
system.physmem.bytesPerActivate::2048-2049           71      0.20%     89.96% # Bytes accessed per row activation
system.physmem.bytesPerActivate::2112-2113           83      0.24%     90.20% # Bytes accessed per row activation
system.physmem.bytesPerActivate::2176-2177           40      0.11%     90.31% # Bytes accessed per row activation
system.physmem.bytesPerActivate::2240-2241           38      0.11%     90.42% # Bytes accessed per row activation
system.physmem.bytesPerActivate::2304-2305           32      0.09%     90.51% # Bytes accessed per row activation
system.physmem.bytesPerActivate::2368-2369           34      0.10%     90.61% # Bytes accessed per row activation
system.physmem.bytesPerActivate::2432-2433           33      0.09%     90.70% # Bytes accessed per row activation
system.physmem.bytesPerActivate::2496-2497           19      0.05%     90.75% # Bytes accessed per row activation
system.physmem.bytesPerActivate::2560-2561           28      0.08%     90.83% # Bytes accessed per row activation
system.physmem.bytesPerActivate::2624-2625           26      0.07%     90.91% # Bytes accessed per row activation
system.physmem.bytesPerActivate::2688-2689           21      0.06%     90.97% # Bytes accessed per row activation
system.physmem.bytesPerActivate::2752-2753           36      0.10%     91.07% # Bytes accessed per row activation
system.physmem.bytesPerActivate::2816-2817           14      0.04%     91.11% # Bytes accessed per row activation
system.physmem.bytesPerActivate::2880-2881           21      0.06%     91.17% # Bytes accessed per row activation
system.physmem.bytesPerActivate::2944-2945           45      0.13%     91.29% # Bytes accessed per row activation
system.physmem.bytesPerActivate::3008-3009           16      0.05%     91.34% # Bytes accessed per row activation
system.physmem.bytesPerActivate::3072-3073           17      0.05%     91.39% # Bytes accessed per row activation
system.physmem.bytesPerActivate::3136-3137           17      0.05%     91.44% # Bytes accessed per row activation
system.physmem.bytesPerActivate::3200-3201           18      0.05%     91.49% # Bytes accessed per row activation
system.physmem.bytesPerActivate::3264-3265           17      0.05%     91.54% # Bytes accessed per row activation
system.physmem.bytesPerActivate::3328-3329           11      0.03%     91.57% # Bytes accessed per row activation
system.physmem.bytesPerActivate::3392-3393           15      0.04%     91.61% # Bytes accessed per row activation
system.physmem.bytesPerActivate::3456-3457           10      0.03%     91.64% # Bytes accessed per row activation
system.physmem.bytesPerActivate::3520-3521           15      0.04%     91.68% # Bytes accessed per row activation
system.physmem.bytesPerActivate::3584-3585           13      0.04%     91.72% # Bytes accessed per row activation
system.physmem.bytesPerActivate::3648-3649           14      0.04%     91.76% # Bytes accessed per row activation
system.physmem.bytesPerActivate::3712-3713            5      0.01%     91.77% # Bytes accessed per row activation
system.physmem.bytesPerActivate::3776-3777           11      0.03%     91.80% # Bytes accessed per row activation
system.physmem.bytesPerActivate::3840-3841           10      0.03%     91.83% # Bytes accessed per row activation
system.physmem.bytesPerActivate::3904-3905           14      0.04%     91.87% # Bytes accessed per row activation
system.physmem.bytesPerActivate::3968-3969           14      0.04%     91.91% # Bytes accessed per row activation
system.physmem.bytesPerActivate::4032-4033           37      0.10%     92.01% # Bytes accessed per row activation
system.physmem.bytesPerActivate::4096-4097           24      0.07%     92.08% # Bytes accessed per row activation
system.physmem.bytesPerActivate::4160-4161           39      0.11%     92.19% # Bytes accessed per row activation
system.physmem.bytesPerActivate::4224-4225           10      0.03%     92.22% # Bytes accessed per row activation
system.physmem.bytesPerActivate::4288-4289           13      0.04%     92.26% # Bytes accessed per row activation
system.physmem.bytesPerActivate::4352-4353           10      0.03%     92.29% # Bytes accessed per row activation
system.physmem.bytesPerActivate::4416-4417            9      0.03%     92.31% # Bytes accessed per row activation
system.physmem.bytesPerActivate::4480-4481           17      0.05%     92.36% # Bytes accessed per row activation
system.physmem.bytesPerActivate::4544-4545            8      0.02%     92.38% # Bytes accessed per row activation
system.physmem.bytesPerActivate::4608-4609            9      0.03%     92.41% # Bytes accessed per row activation
system.physmem.bytesPerActivate::4672-4673            7      0.02%     92.43% # Bytes accessed per row activation
system.physmem.bytesPerActivate::4736-4737           14      0.04%     92.47% # Bytes accessed per row activation
system.physmem.bytesPerActivate::4800-4801            7      0.02%     92.49% # Bytes accessed per row activation
system.physmem.bytesPerActivate::4864-4865           14      0.04%     92.53% # Bytes accessed per row activation
system.physmem.bytesPerActivate::4928-4929            4      0.01%     92.54% # Bytes accessed per row activation
system.physmem.bytesPerActivate::4992-4993            9      0.03%     92.56% # Bytes accessed per row activation
system.physmem.bytesPerActivate::5056-5057            6      0.02%     92.58% # Bytes accessed per row activation
system.physmem.bytesPerActivate::5120-5121           13      0.04%     92.62% # Bytes accessed per row activation
system.physmem.bytesPerActivate::5184-5185            3      0.01%     92.63% # Bytes accessed per row activation
system.physmem.bytesPerActivate::5248-5249            5      0.01%     92.64% # Bytes accessed per row activation
system.physmem.bytesPerActivate::5312-5313            4      0.01%     92.65% # Bytes accessed per row activation
system.physmem.bytesPerActivate::5376-5377            8      0.02%     92.68% # Bytes accessed per row activation
system.physmem.bytesPerActivate::5440-5441            6      0.02%     92.69% # Bytes accessed per row activation
system.physmem.bytesPerActivate::5504-5505           16      0.05%     92.74% # Bytes accessed per row activation
system.physmem.bytesPerActivate::5568-5569            8      0.02%     92.76% # Bytes accessed per row activation
system.physmem.bytesPerActivate::5632-5633            6      0.02%     92.78% # Bytes accessed per row activation
system.physmem.bytesPerActivate::5696-5697            5      0.01%     92.79% # Bytes accessed per row activation
system.physmem.bytesPerActivate::5760-5761            4      0.01%     92.80% # Bytes accessed per row activation
system.physmem.bytesPerActivate::5824-5825            6      0.02%     92.82% # Bytes accessed per row activation
system.physmem.bytesPerActivate::5888-5889            7      0.02%     92.84% # Bytes accessed per row activation
system.physmem.bytesPerActivate::5952-5953            5      0.01%     92.85% # Bytes accessed per row activation
system.physmem.bytesPerActivate::6016-6017            7      0.02%     92.87% # Bytes accessed per row activation
system.physmem.bytesPerActivate::6080-6081           28      0.08%     92.95% # Bytes accessed per row activation
system.physmem.bytesPerActivate::6144-6145           10      0.03%     92.98% # Bytes accessed per row activation
system.physmem.bytesPerActivate::6208-6209           24      0.07%     93.05% # Bytes accessed per row activation
system.physmem.bytesPerActivate::6272-6273            4      0.01%     93.06% # Bytes accessed per row activation
system.physmem.bytesPerActivate::6336-6337            7      0.02%     93.08% # Bytes accessed per row activation
system.physmem.bytesPerActivate::6400-6401            9      0.03%     93.11% # Bytes accessed per row activation
system.physmem.bytesPerActivate::6464-6465            9      0.03%     93.13% # Bytes accessed per row activation
system.physmem.bytesPerActivate::6528-6529            8      0.02%     93.15% # Bytes accessed per row activation
system.physmem.bytesPerActivate::6592-6593            5      0.01%     93.17% # Bytes accessed per row activation
system.physmem.bytesPerActivate::6656-6657           15      0.04%     93.21% # Bytes accessed per row activation
system.physmem.bytesPerActivate::6720-6721            8      0.02%     93.23% # Bytes accessed per row activation
system.physmem.bytesPerActivate::6784-6785           12      0.03%     93.27% # Bytes accessed per row activation
system.physmem.bytesPerActivate::6848-6849            6      0.02%     93.28% # Bytes accessed per row activation
system.physmem.bytesPerActivate::6912-6913           13      0.04%     93.32% # Bytes accessed per row activation
system.physmem.bytesPerActivate::6976-6977           13      0.04%     93.36% # Bytes accessed per row activation
system.physmem.bytesPerActivate::7040-7041           11      0.03%     93.39% # Bytes accessed per row activation
system.physmem.bytesPerActivate::7104-7105           11      0.03%     93.42% # Bytes accessed per row activation
system.physmem.bytesPerActivate::7168-7169            9      0.03%     93.45% # Bytes accessed per row activation
system.physmem.bytesPerActivate::7232-7233            9      0.03%     93.47% # Bytes accessed per row activation
system.physmem.bytesPerActivate::7296-7297           10      0.03%     93.50% # Bytes accessed per row activation
system.physmem.bytesPerActivate::7360-7361            5      0.01%     93.51% # Bytes accessed per row activation
system.physmem.bytesPerActivate::7424-7425           16      0.05%     93.56% # Bytes accessed per row activation
system.physmem.bytesPerActivate::7488-7489            4      0.01%     93.57% # Bytes accessed per row activation
system.physmem.bytesPerActivate::7552-7553           12      0.03%     93.61% # Bytes accessed per row activation
system.physmem.bytesPerActivate::7616-7617            6      0.02%     93.62% # Bytes accessed per row activation
system.physmem.bytesPerActivate::7680-7681           16      0.05%     93.67% # Bytes accessed per row activation
system.physmem.bytesPerActivate::7744-7745           10      0.03%     93.70% # Bytes accessed per row activation
system.physmem.bytesPerActivate::7808-7809            7      0.02%     93.72% # Bytes accessed per row activation
system.physmem.bytesPerActivate::7872-7873           13      0.04%     93.75% # Bytes accessed per row activation
system.physmem.bytesPerActivate::7936-7937           14      0.04%     93.79% # Bytes accessed per row activation
system.physmem.bytesPerActivate::8000-8001           11      0.03%     93.82% # Bytes accessed per row activation
system.physmem.bytesPerActivate::8064-8065           12      0.03%     93.86% # Bytes accessed per row activation
system.physmem.bytesPerActivate::8128-8129           29      0.08%     93.94% # Bytes accessed per row activation
system.physmem.bytesPerActivate::8192-8193         2137      6.06%    100.00% # Bytes accessed per row activation
system.physmem.bytesPerActivate::total          35264                       # Bytes accessed per row activation
system.physmem.totQLat                      335895500                       # Total cycles spent in queuing delays
system.physmem.totMemAccLat                9996523000                       # Sum of mem lat for all requests
system.physmem.totBusLat                   2464950000                       # Total cycles spent in databus access
system.physmem.totBankLat                  7195677500                       # Total cycles spent in bank access
system.physmem.avgQLat                         681.34                       # Average queueing delay per request
system.physmem.avgBankLat                    14595.99                       # Average bank access latency per request
system.physmem.avgBusLat                      5000.00                       # Average bus latency per request
system.physmem.avgMemAccLat                  20277.33                       # Average memory access latency
system.physmem.avgRdBW                         170.66                       # Average achieved read bandwidth in MB/s
system.physmem.avgWrBW                          85.13                       # Average achieved write bandwidth in MB/s
system.physmem.avgConsumedRdBW                 170.66                       # Average consumed read bandwidth in MB/s
system.physmem.avgConsumedWrBW                  85.13                       # Average consumed write bandwidth in MB/s
system.physmem.peakBW                        12800.00                       # Theoretical peak bandwidth in MB/s
system.physmem.busUtil                           2.00                       # Data bus utilization in percentage
system.physmem.avgRdQLen                         0.05                       # Average read queue length over time
system.physmem.avgWrQLen                        11.30                       # Average write queue length over time
system.physmem.readRowHits                     471614                       # Number of row buffer hits during reads
system.physmem.writeRowHits                    232005                       # Number of row buffer hits during writes
system.physmem.readRowHitRate                   95.66                       # Row buffer hit rate for reads
system.physmem.writeRowHitRate                  94.35                       # Row buffer hit rate for writes
system.physmem.avgGap                       250206.56                       # Average gap between requests
system.membus.throughput                    255787924                       # Throughput (bytes/s)
system.membus.trans_dist::ReadReq              247017                       # Transaction distribution
system.membus.trans_dist::ReadResp             247015                       # Transaction distribution
system.membus.trans_dist::Writeback            245907                       # Transaction distribution
system.membus.trans_dist::ReadExReq            245987                       # Transaction distribution
system.membus.trans_dist::ReadExResp           245987                       # Transaction distribution
system.membus.pkt_count_system.l2.mem_side      1231913                       # Packet count per connected master and slave (bytes)
system.membus.pkt_count                       1231913                       # Packet count per connected master and slave (bytes)
system.membus.tot_pkt_size_system.l2.mem_side     47290176                       # Cumulative packet size per connected master and slave (bytes)
system.membus.tot_pkt_size                   47290176                       # Cumulative packet size per connected master and slave (bytes)
system.membus.data_through_bus               47290176                       # Total data (bytes)
system.membus.snoop_data_through_bus                0                       # Total snoop data (bytes)
system.membus.reqLayer0.occupancy          1353083500                       # Layer occupancy (ticks)
system.membus.reqLayer0.utilization               0.7                       # Layer utilization (%)
system.membus.respLayer1.occupancy         2338616500                       # Layer occupancy (ticks)
system.membus.respLayer1.utilization              1.3                       # Layer utilization (%)
system.switch_cpus.branchPred.lookups        28915449                       # Number of BP lookups
system.switch_cpus.branchPred.condPredicted      9999802                       # Number of conditional branches predicted
system.switch_cpus.branchPred.condIncorrect        13849                       # Number of conditional branches incorrect
system.switch_cpus.branchPred.BTBLookups     18370599                       # Number of BTB lookups
system.switch_cpus.branchPred.BTBHits        18366318                       # Number of BTB hits
system.switch_cpus.branchPred.BTBCorrect            0                       # Number of correct BTB predictions (this stat may not work properly.
system.switch_cpus.branchPred.BTBHitPct     99.976696                       # BTB Hit Percentage
system.switch_cpus.branchPred.usedRAS         9450020                       # Number of times the RAS was used to get a target.
system.switch_cpus.branchPred.RASInCorrect          108                       # Number of incorrect RAS predictions.
system.switch_cpus.dtb.fetch_hits                   0                       # ITB hits
system.switch_cpus.dtb.fetch_misses                 0                       # ITB misses
system.switch_cpus.dtb.fetch_acv                    0                       # ITB acv
system.switch_cpus.dtb.fetch_accesses               0                       # ITB accesses
system.switch_cpus.dtb.read_hits            242277820                       # DTB read hits
system.switch_cpus.dtb.read_misses               4525                       # DTB read misses
system.switch_cpus.dtb.read_acv                     1                       # DTB read access violations
system.switch_cpus.dtb.read_accesses        242282345                       # DTB read accesses
system.switch_cpus.dtb.write_hits            81090167                       # DTB write hits
system.switch_cpus.dtb.write_misses              2252                       # DTB write misses
system.switch_cpus.dtb.write_acv                    0                       # DTB write access violations
system.switch_cpus.dtb.write_accesses        81092419                       # DTB write accesses
system.switch_cpus.dtb.data_hits            323367987                       # DTB hits
system.switch_cpus.dtb.data_misses               6777                       # DTB misses
system.switch_cpus.dtb.data_acv                     1                       # DTB access violations
system.switch_cpus.dtb.data_accesses        323374764                       # DTB accesses
system.switch_cpus.itb.fetch_hits            77406959                       # ITB hits
system.switch_cpus.itb.fetch_misses               104                       # ITB misses
system.switch_cpus.itb.fetch_acv                    0                       # ITB acv
system.switch_cpus.itb.fetch_accesses        77407063                       # ITB accesses
system.switch_cpus.itb.read_hits                    0                       # DTB read hits
system.switch_cpus.itb.read_misses                  0                       # DTB read misses
system.switch_cpus.itb.read_acv                     0                       # DTB read access violations
system.switch_cpus.itb.read_accesses                0                       # DTB read accesses
system.switch_cpus.itb.write_hits                   0                       # DTB write hits
system.switch_cpus.itb.write_misses                 0                       # DTB write misses
system.switch_cpus.itb.write_acv                    0                       # DTB write access violations
system.switch_cpus.itb.write_accesses               0                       # DTB write accesses
system.switch_cpus.itb.data_hits                    0                       # DTB hits
system.switch_cpus.itb.data_misses                  0                       # DTB misses
system.switch_cpus.itb.data_acv                     0                       # DTB access violations
system.switch_cpus.itb.data_accesses                0                       # DTB accesses
system.cpu.workload.num_syscalls                  503                       # Number of system calls
system.switch_cpus.numCycles                369760818                       # number of cpu cycles simulated
system.switch_cpus.numWorkItemsStarted              0                       # number of work items this cpu started
system.switch_cpus.numWorkItemsCompleted            0                       # number of work items this cpu completed
system.switch_cpus.fetch.icacheStallCycles     77448527                       # Number of cycles fetch is stalled on an Icache miss
system.switch_cpus.fetch.Insts              878425524                       # Number of instructions fetch has processed
system.switch_cpus.fetch.Branches            28915449                       # Number of branches that fetch encountered
system.switch_cpus.fetch.predictedBranches     27816338                       # Number of branches that fetch has predicted taken
system.switch_cpus.fetch.Cycles             128290919                       # Number of cycles fetch has run and was not squashing or blocked
system.switch_cpus.fetch.SquashCycles          158522                       # Number of cycles fetch has spent squashing
system.switch_cpus.fetch.BlockedCycles      131919619                       # Number of cycles fetch has spent blocked
system.switch_cpus.fetch.MiscStallCycles           63                       # Number of cycles fetch has spent waiting on interrupts, or bad addresses, or out of MSHRs
system.switch_cpus.fetch.PendingTrapStallCycles         1557                       # Number of stall cycles due to pending traps
system.switch_cpus.fetch.IcacheWaitRetryStallCycles           49                       # Number of stall cycles due to full MSHR
system.switch_cpus.fetch.CacheLines          77406959                       # Number of cache lines fetched
system.switch_cpus.fetch.IcacheSquashes          7247                       # Number of outstanding Icache misses that were squashed
system.switch_cpus.fetch.rateDist::samples    337788961                       # Number of instructions fetched each cycle (Total)
system.switch_cpus.fetch.rateDist::mean      2.600516                       # Number of instructions fetched each cycle (Total)
system.switch_cpus.fetch.rateDist::stdev     3.578098                       # Number of instructions fetched each cycle (Total)
system.switch_cpus.fetch.rateDist::underflows            0      0.00%      0.00% # Number of instructions fetched each cycle (Total)
system.switch_cpus.fetch.rateDist::0        209498042     62.02%     62.02% # Number of instructions fetched each cycle (Total)
system.switch_cpus.fetch.rateDist::1          4471815      1.32%     63.34% # Number of instructions fetched each cycle (Total)
system.switch_cpus.fetch.rateDist::2          8510374      2.52%     65.86% # Number of instructions fetched each cycle (Total)
system.switch_cpus.fetch.rateDist::3          4218484      1.25%     67.11% # Number of instructions fetched each cycle (Total)
system.switch_cpus.fetch.rateDist::4          5090589      1.51%     68.62% # Number of instructions fetched each cycle (Total)
system.switch_cpus.fetch.rateDist::5          2643221      0.78%     69.40% # Number of instructions fetched each cycle (Total)
system.switch_cpus.fetch.rateDist::6          6231534      1.84%     71.25% # Number of instructions fetched each cycle (Total)
system.switch_cpus.fetch.rateDist::7          3689372      1.09%     72.34% # Number of instructions fetched each cycle (Total)
system.switch_cpus.fetch.rateDist::8         93435530     27.66%    100.00% # Number of instructions fetched each cycle (Total)
system.switch_cpus.fetch.rateDist::overflows            0      0.00%    100.00% # Number of instructions fetched each cycle (Total)
system.switch_cpus.fetch.rateDist::min_value            0                       # Number of instructions fetched each cycle (Total)
system.switch_cpus.fetch.rateDist::max_value            8                       # Number of instructions fetched each cycle (Total)
system.switch_cpus.fetch.rateDist::total    337788961                       # Number of instructions fetched each cycle (Total)
system.switch_cpus.fetch.branchRate          0.078200                       # Number of branch fetches per cycle
system.switch_cpus.fetch.rate                2.375659                       # Number of inst fetches per cycle
system.switch_cpus.decode.IdleCycles        105265549                       # Number of cycles decode is idle
system.switch_cpus.decode.BlockedCycles     104117503                       # Number of cycles decode is blocked
system.switch_cpus.decode.RunCycles         105577940                       # Number of cycles decode is running
system.switch_cpus.decode.UnblockCycles      22700211                       # Number of cycles decode is unblocking
system.switch_cpus.decode.SquashCycles         127757                       # Number of cycles decode is squashing
system.switch_cpus.decode.BranchResolved      9461758                       # Number of times decode resolved a branch
system.switch_cpus.decode.BranchMispred           483                       # Number of times decode detected a branch misprediction
system.switch_cpus.decode.DecodedInsts      878332912                       # Number of instructions handled by decode
system.switch_cpus.decode.SquashedInsts          1539                       # Number of squashed instructions handled by decode
system.switch_cpus.rename.SquashCycles         127757                       # Number of cycles rename is squashing
system.switch_cpus.rename.IdleCycles        112519581                       # Number of cycles rename is idle
system.switch_cpus.rename.BlockCycles        45577681                       # Number of cycles rename is blocking
system.switch_cpus.rename.serializeStallCycles       373357                       # count of cycles rename stalled for serializing inst
system.switch_cpus.rename.RunCycles         121078267                       # Number of cycles rename is running
system.switch_cpus.rename.UnblockCycles      58112317                       # Number of cycles rename is unblocking
system.switch_cpus.rename.RenamedInsts      878198382                       # Number of instructions processed by rename
system.switch_cpus.rename.ROBFullEvents            23                       # Number of times rename has blocked due to ROB full
system.switch_cpus.rename.IQFullEvents          25287                       # Number of times rename has blocked due to IQ full
system.switch_cpus.rename.LSQFullEvents      53436134                       # Number of times rename has blocked due to LSQ full
system.switch_cpus.rename.RenamedOperands    749238963                       # Number of destination operands rename has renamed
system.switch_cpus.rename.RenameLookups    1228549586                       # Number of register rename lookups that rename has made
system.switch_cpus.rename.int_rename_lookups    855109624                       # Number of integer rename lookups
system.switch_cpus.rename.fp_rename_lookups    373439962                       # Number of floating rename lookups
system.switch_cpus.rename.CommittedMaps     748287888                       # Number of HB maps that are committed
system.switch_cpus.rename.UndoneMaps           951075                       # Number of HB maps that are undone due to squashing
system.switch_cpus.rename.serializingInsts         5808                       # count of serializing insts renamed
system.switch_cpus.rename.tempSerializingInsts         3724                       # count of temporary serializing insts renamed
system.switch_cpus.rename.skidInsts         174930082                       # count of insts added to the skid buffer
system.switch_cpus.memDep0.insertedLoads    242357188                       # Number of loads inserted to the mem dependence unit.
system.switch_cpus.memDep0.insertedStores     81140810                       # Number of stores inserted to the mem dependence unit.
system.switch_cpus.memDep0.conflictingLoads     31732278                       # Number of conflicting loads.
system.switch_cpus.memDep0.conflictingStores      2359741                       # Number of conflicting stores.
system.switch_cpus.iq.iqInstsAdded          849709579                       # Number of instructions added to the IQ (excludes non-spec)
system.switch_cpus.iq.iqNonSpecInstsAdded         6871                       # Number of non-speculative instructions added to the IQ
system.switch_cpus.iq.iqInstsIssued         849305477                       # Number of instructions issued
system.switch_cpus.iq.iqSquashedInstsIssued        11659                       # Number of squashed instructions issued
system.switch_cpus.iq.iqSquashedInstsExamined       949269                       # Number of squashed instructions iterated over during squash; mainly for profiling
system.switch_cpus.iq.iqSquashedOperandsExamined       768624                       # Number of squashed operands that are examined and possibly removed from graph
system.switch_cpus.iq.iqSquashedNonSpecRemoved          109                       # Number of squashed non-spec instructions that were removed
system.switch_cpus.iq.issued_per_cycle::samples    337788961                       # Number of insts issued each cycle
system.switch_cpus.iq.issued_per_cycle::mean     2.514308                       # Number of insts issued each cycle
system.switch_cpus.iq.issued_per_cycle::stdev     1.590197                       # Number of insts issued each cycle
system.switch_cpus.iq.issued_per_cycle::underflows            0      0.00%      0.00% # Number of insts issued each cycle
system.switch_cpus.iq.issued_per_cycle::0     35353782     10.47%     10.47% # Number of insts issued each cycle
system.switch_cpus.iq.issued_per_cycle::1     63092656     18.68%     29.14% # Number of insts issued each cycle
system.switch_cpus.iq.issued_per_cycle::2     77617898     22.98%     52.12% # Number of insts issued each cycle
system.switch_cpus.iq.issued_per_cycle::3     70383477     20.84%     72.96% # Number of insts issued each cycle
system.switch_cpus.iq.issued_per_cycle::4     50024537     14.81%     87.77% # Number of insts issued each cycle
system.switch_cpus.iq.issued_per_cycle::5     30192750      8.94%     96.71% # Number of insts issued each cycle
system.switch_cpus.iq.issued_per_cycle::6      9415167      2.79%     99.49% # Number of insts issued each cycle
system.switch_cpus.iq.issued_per_cycle::7      1395858      0.41%     99.91% # Number of insts issued each cycle
system.switch_cpus.iq.issued_per_cycle::8       312836      0.09%    100.00% # Number of insts issued each cycle
system.switch_cpus.iq.issued_per_cycle::overflows            0      0.00%    100.00% # Number of insts issued each cycle
system.switch_cpus.iq.issued_per_cycle::min_value            0                       # Number of insts issued each cycle
system.switch_cpus.iq.issued_per_cycle::max_value            8                       # Number of insts issued each cycle
system.switch_cpus.iq.issued_per_cycle::total    337788961                       # Number of insts issued each cycle
system.switch_cpus.iq.fu_full::No_OpClass            0      0.00%      0.00% # attempts to use FU when none available
system.switch_cpus.iq.fu_full::IntAlu           44360      0.41%      0.41% # attempts to use FU when none available
system.switch_cpus.iq.fu_full::IntMult              0      0.00%      0.41% # attempts to use FU when none available
system.switch_cpus.iq.fu_full::IntDiv               0      0.00%      0.41% # attempts to use FU when none available
system.switch_cpus.iq.fu_full::FloatAdd             0      0.00%      0.41% # attempts to use FU when none available
system.switch_cpus.iq.fu_full::FloatCmp             0      0.00%      0.41% # attempts to use FU when none available
system.switch_cpus.iq.fu_full::FloatCvt       1464206     13.65%     14.06% # attempts to use FU when none available
system.switch_cpus.iq.fu_full::FloatMult       748535      6.98%     21.04% # attempts to use FU when none available
system.switch_cpus.iq.fu_full::FloatDiv             0      0.00%     21.04% # attempts to use FU when none available
system.switch_cpus.iq.fu_full::FloatSqrt            0      0.00%     21.04% # attempts to use FU when none available
system.switch_cpus.iq.fu_full::SimdAdd              0      0.00%     21.04% # attempts to use FU when none available
system.switch_cpus.iq.fu_full::SimdAddAcc            0      0.00%     21.04% # attempts to use FU when none available
system.switch_cpus.iq.fu_full::SimdAlu              0      0.00%     21.04% # attempts to use FU when none available
system.switch_cpus.iq.fu_full::SimdCmp              0      0.00%     21.04% # attempts to use FU when none available
system.switch_cpus.iq.fu_full::SimdCvt              0      0.00%     21.04% # attempts to use FU when none available
system.switch_cpus.iq.fu_full::SimdMisc             0      0.00%     21.04% # attempts to use FU when none available
system.switch_cpus.iq.fu_full::SimdMult             0      0.00%     21.04% # attempts to use FU when none available
system.switch_cpus.iq.fu_full::SimdMultAcc            0      0.00%     21.04% # attempts to use FU when none available
system.switch_cpus.iq.fu_full::SimdShift            0      0.00%     21.04% # attempts to use FU when none available
system.switch_cpus.iq.fu_full::SimdShiftAcc            0      0.00%     21.04% # attempts to use FU when none available
system.switch_cpus.iq.fu_full::SimdSqrt             0      0.00%     21.04% # attempts to use FU when none available
system.switch_cpus.iq.fu_full::SimdFloatAdd            0      0.00%     21.04% # attempts to use FU when none available
system.switch_cpus.iq.fu_full::SimdFloatAlu            0      0.00%     21.04% # attempts to use FU when none available
system.switch_cpus.iq.fu_full::SimdFloatCmp            0      0.00%     21.04% # attempts to use FU when none available
system.switch_cpus.iq.fu_full::SimdFloatCvt            0      0.00%     21.04% # attempts to use FU when none available
system.switch_cpus.iq.fu_full::SimdFloatDiv            0      0.00%     21.04% # attempts to use FU when none available
system.switch_cpus.iq.fu_full::SimdFloatMisc            0      0.00%     21.04% # attempts to use FU when none available
system.switch_cpus.iq.fu_full::SimdFloatMult            0      0.00%     21.04% # attempts to use FU when none available
system.switch_cpus.iq.fu_full::SimdFloatMultAcc            0      0.00%     21.04% # attempts to use FU when none available
system.switch_cpus.iq.fu_full::SimdFloatSqrt            0      0.00%     21.04% # attempts to use FU when none available
system.switch_cpus.iq.fu_full::MemRead        4026497     37.53%     58.56% # attempts to use FU when none available
system.switch_cpus.iq.fu_full::MemWrite       4445892     41.44%    100.00% # attempts to use FU when none available
system.switch_cpus.iq.fu_full::IprAccess            0      0.00%    100.00% # attempts to use FU when none available
system.switch_cpus.iq.fu_full::InstPrefetch            0      0.00%    100.00% # attempts to use FU when none available
system.switch_cpus.iq.FU_type_0::No_OpClass          393      0.00%      0.00% # Type of FU issued
system.switch_cpus.iq.FU_type_0::IntAlu     299334326     35.24%     35.24% # Type of FU issued
system.switch_cpus.iq.FU_type_0::IntMult     18887722      2.22%     37.47% # Type of FU issued
system.switch_cpus.iq.FU_type_0::IntDiv             0      0.00%     37.47% # Type of FU issued
system.switch_cpus.iq.FU_type_0::FloatAdd    127957149     15.07%     52.53% # Type of FU issued
system.switch_cpus.iq.FU_type_0::FloatCmp            3      0.00%     52.53% # Type of FU issued
system.switch_cpus.iq.FU_type_0::FloatCvt     48252101      5.68%     58.22% # Type of FU issued
system.switch_cpus.iq.FU_type_0::FloatMult     28320069      3.33%     61.55% # Type of FU issued
system.switch_cpus.iq.FU_type_0::FloatDiv      3147062      0.37%     61.92% # Type of FU issued
system.switch_cpus.iq.FU_type_0::FloatSqrt            0      0.00%     61.92% # Type of FU issued
system.switch_cpus.iq.FU_type_0::SimdAdd            0      0.00%     61.92% # Type of FU issued
system.switch_cpus.iq.FU_type_0::SimdAddAcc            0      0.00%     61.92% # Type of FU issued
system.switch_cpus.iq.FU_type_0::SimdAlu            0      0.00%     61.92% # Type of FU issued
system.switch_cpus.iq.FU_type_0::SimdCmp            0      0.00%     61.92% # Type of FU issued
system.switch_cpus.iq.FU_type_0::SimdCvt            0      0.00%     61.92% # Type of FU issued
system.switch_cpus.iq.FU_type_0::SimdMisc            0      0.00%     61.92% # Type of FU issued
system.switch_cpus.iq.FU_type_0::SimdMult            0      0.00%     61.92% # Type of FU issued
system.switch_cpus.iq.FU_type_0::SimdMultAcc            0      0.00%     61.92% # Type of FU issued
system.switch_cpus.iq.FU_type_0::SimdShift            0      0.00%     61.92% # Type of FU issued
system.switch_cpus.iq.FU_type_0::SimdShiftAcc            0      0.00%     61.92% # Type of FU issued
system.switch_cpus.iq.FU_type_0::SimdSqrt            0      0.00%     61.92% # Type of FU issued
system.switch_cpus.iq.FU_type_0::SimdFloatAdd            0      0.00%     61.92% # Type of FU issued
system.switch_cpus.iq.FU_type_0::SimdFloatAlu            0      0.00%     61.92% # Type of FU issued
system.switch_cpus.iq.FU_type_0::SimdFloatCmp            0      0.00%     61.92% # Type of FU issued
system.switch_cpus.iq.FU_type_0::SimdFloatCvt            0      0.00%     61.92% # Type of FU issued
system.switch_cpus.iq.FU_type_0::SimdFloatDiv            0      0.00%     61.92% # Type of FU issued
system.switch_cpus.iq.FU_type_0::SimdFloatMisc            0      0.00%     61.92% # Type of FU issued
system.switch_cpus.iq.FU_type_0::SimdFloatMult            0      0.00%     61.92% # Type of FU issued
system.switch_cpus.iq.FU_type_0::SimdFloatMultAcc            0      0.00%     61.92% # Type of FU issued
system.switch_cpus.iq.FU_type_0::SimdFloatSqrt            0      0.00%     61.92% # Type of FU issued
system.switch_cpus.iq.FU_type_0::MemRead    242310116     28.53%     90.45% # Type of FU issued
system.switch_cpus.iq.FU_type_0::MemWrite     81096536      9.55%    100.00% # Type of FU issued
system.switch_cpus.iq.FU_type_0::IprAccess            0      0.00%    100.00% # Type of FU issued
system.switch_cpus.iq.FU_type_0::InstPrefetch            0      0.00%    100.00% # Type of FU issued
system.switch_cpus.iq.FU_type_0::total      849305477                       # Type of FU issued
system.switch_cpus.iq.rate                   2.296905                       # Inst issue rate
system.switch_cpus.iq.fu_busy_cnt            10729490                       # FU busy when requested
system.switch_cpus.iq.fu_busy_rate           0.012633                       # FU busy rate (busy events/executed inst)
system.switch_cpus.iq.int_inst_queue_reads   1520462332                       # Number of integer instruction queue reads
system.switch_cpus.iq.int_inst_queue_writes    588345264                       # Number of integer instruction queue writes
system.switch_cpus.iq.int_inst_queue_wakeup_accesses    586990096                       # Number of integer instruction queue wakeup accesses
system.switch_cpus.iq.fp_inst_queue_reads    526678732                       # Number of floating instruction queue reads
system.switch_cpus.iq.fp_inst_queue_writes    262332542                       # Number of floating instruction queue writes
system.switch_cpus.iq.fp_inst_queue_wakeup_accesses    262222818                       # Number of floating instruction queue wakeup accesses
system.switch_cpus.iq.int_alu_accesses      595587710                       # Number of integer alu accesses
system.switch_cpus.iq.fp_alu_accesses       264446864                       # Number of floating point alu accesses
system.switch_cpus.iew.lsq.thread0.forwLoads     32695586                       # Number of loads that had data forwarded from stores
system.switch_cpus.iew.lsq.thread0.invAddrLoads            0                       # Number of loads ignored due to an invalid address
system.switch_cpus.iew.lsq.thread0.squashedLoads       306656                       # Number of loads squashed
system.switch_cpus.iew.lsq.thread0.ignoredResponses          718                       # Number of memory responses ignored because the instruction is squashed
system.switch_cpus.iew.lsq.thread0.memOrderViolation        12217                       # Number of memory ordering violations
system.switch_cpus.iew.lsq.thread0.squashedStores        93895                       # Number of stores squashed
system.switch_cpus.iew.lsq.thread0.invAddrSwpfs            0                       # Number of software prefetches ignored due to an invalid address
system.switch_cpus.iew.lsq.thread0.blockedLoads            0                       # Number of blocked loads due to partial load-store forwarding
system.switch_cpus.iew.lsq.thread0.rescheduledLoads           15                       # Number of loads that were rescheduled
system.switch_cpus.iew.lsq.thread0.cacheBlocked          782                       # Number of times an access to memory failed due to the cache being blocked
system.switch_cpus.iew.iewIdleCycles                0                       # Number of cycles IEW is idle
system.switch_cpus.iew.iewSquashCycles         127757                       # Number of cycles IEW is squashing
system.switch_cpus.iew.iewBlockCycles        13366091                       # Number of cycles IEW is blocking
system.switch_cpus.iew.iewUnblockCycles       1043453                       # Number of cycles IEW is unblocking
system.switch_cpus.iew.iewDispatchedInsts    878054202                       # Number of instructions dispatched to IQ
system.switch_cpus.iew.iewDispSquashedInsts         5818                       # Number of squashed instructions skipped by dispatch
system.switch_cpus.iew.iewDispLoadInsts     242357188                       # Number of dispatched load instructions
system.switch_cpus.iew.iewDispStoreInsts     81140810                       # Number of dispatched store instructions
system.switch_cpus.iew.iewDispNonSpecInsts         3720                       # Number of dispatched non-speculative instructions
system.switch_cpus.iew.iewIQFullEvents          37301                       # Number of times the IQ has become full, causing a stall
system.switch_cpus.iew.iewLSQFullEvents         84321                       # Number of times the LSQ has become full, causing a stall
system.switch_cpus.iew.memOrderViolationEvents        12217                       # Number of memory order violations
system.switch_cpus.iew.predictedTakenIncorrect        10193                       # Number of branches that were predicted taken incorrectly
system.switch_cpus.iew.predictedNotTakenIncorrect         4241                       # Number of branches that were predicted not taken incorrectly
system.switch_cpus.iew.branchMispredicts        14434                       # Number of branch mispredicts detected at execute
system.switch_cpus.iew.iewExecutedInsts     849262486                       # Number of executed instructions
system.switch_cpus.iew.iewExecLoadInsts     242282351                       # Number of load instructions executed
system.switch_cpus.iew.iewExecSquashedInsts        42991                       # Number of squashed instructions skipped in execute
system.switch_cpus.iew.exec_swp                     0                       # number of swp insts executed
system.switch_cpus.iew.exec_nop              28337752                       # number of nop insts executed
system.switch_cpus.iew.exec_refs            323374772                       # number of memory reference insts executed
system.switch_cpus.iew.exec_branches         28892177                       # Number of branches executed
system.switch_cpus.iew.exec_stores           81092421                       # Number of stores executed
system.switch_cpus.iew.exec_rate             2.296789                       # Inst execution rate
system.switch_cpus.iew.wb_sent              849235540                       # cumulative count of insts sent to commit
system.switch_cpus.iew.wb_count             849212914                       # cumulative count of insts written-back
system.switch_cpus.iew.wb_producers         723381798                       # num instructions producing a value
system.switch_cpus.iew.wb_consumers         816046809                       # num instructions consuming a value
system.switch_cpus.iew.wb_penalized                 0                       # number of instrctions required to write to 'other' IQ
system.switch_cpus.iew.wb_rate               2.296655                       # insts written-back per cycle
system.switch_cpus.iew.wb_fanout             0.886446                       # average fanout of values written-back
system.switch_cpus.iew.wb_penalized_rate            0                       # fraction of instructions written-back that wrote to 'other' IQ
system.switch_cpus.commit.commitSquashedInsts       876376                       # The number of squashed insts skipped by commit
system.switch_cpus.commit.commitNonSpecStalls         6762                       # The number of times commit has been forced to stall to communicate backwards
system.switch_cpus.commit.branchMispredicts        13379                       # The number of times a branch was mispredicted
system.switch_cpus.commit.committed_per_cycle::samples    337661204                       # Number of insts commited each cycle
system.switch_cpus.commit.committed_per_cycle::mean     2.597547                       # Number of insts commited each cycle
system.switch_cpus.commit.committed_per_cycle::stdev     3.281879                       # Number of insts commited each cycle
system.switch_cpus.commit.committed_per_cycle::underflows            0      0.00%      0.00% # Number of insts commited each cycle
system.switch_cpus.commit.committed_per_cycle::0    132387619     39.21%     39.21% # Number of insts commited each cycle
system.switch_cpus.commit.committed_per_cycle::1     87663475     25.96%     65.17% # Number of insts commited each cycle
system.switch_cpus.commit.committed_per_cycle::2     11699764      3.46%     68.63% # Number of insts commited each cycle
system.switch_cpus.commit.committed_per_cycle::3      5933630      1.76%     70.39% # Number of insts commited each cycle
system.switch_cpus.commit.committed_per_cycle::4      5695209      1.69%     72.08% # Number of insts commited each cycle
system.switch_cpus.commit.committed_per_cycle::5      3773027      1.12%     73.20% # Number of insts commited each cycle
system.switch_cpus.commit.committed_per_cycle::6      5795338      1.72%     74.91% # Number of insts commited each cycle
system.switch_cpus.commit.committed_per_cycle::7      5896346      1.75%     76.66% # Number of insts commited each cycle
system.switch_cpus.commit.committed_per_cycle::8     78816796     23.34%    100.00% # Number of insts commited each cycle
system.switch_cpus.commit.committed_per_cycle::overflows            0      0.00%    100.00% # Number of insts commited each cycle
system.switch_cpus.commit.committed_per_cycle::min_value            0                       # Number of insts commited each cycle
system.switch_cpus.commit.committed_per_cycle::max_value            8                       # Number of insts commited each cycle
system.switch_cpus.commit.committed_per_cycle::total    337661204                       # Number of insts commited each cycle
system.switch_cpus.commit.committedInsts    877090682                       # Number of instructions committed
system.switch_cpus.commit.committedOps      877090682                       # Number of ops (including micro ops) committed
system.switch_cpus.commit.swp_count                 0                       # Number of s/w prefetches committed
system.switch_cpus.commit.refs              323097447                       # Number of memory references committed
system.switch_cpus.commit.loads             242050532                       # Number of loads committed
system.switch_cpus.commit.membars                3127                       # Number of memory barriers committed
system.switch_cpus.commit.branches           28869599                       # Number of branches committed
system.switch_cpus.commit.fp_insts          262150420                       # Number of committed floating point instructions.
system.switch_cpus.commit.int_insts         689356808                       # Number of committed integer instructions.
system.switch_cpus.commit.function_calls      9447851                       # Number of function calls committed.
system.switch_cpus.commit.bw_lim_events      78816796                       # number cycles where commit BW limit reached
system.switch_cpus.commit.bw_limited                0                       # number of insts not committed due to BW limits
system.switch_cpus.rob.rob_reads           1136757386                       # The number of ROB reads
system.switch_cpus.rob.rob_writes          1756062193                       # The number of ROB writes
system.switch_cpus.timesIdled                  489542                       # Number of times that the entire CPU went into an idle state and unscheduled itself
system.switch_cpus.idleCycles                31971857                       # Total number of cycles that the CPU has spent unscheduled due to idling
system.switch_cpus.committedInsts           848757450                       # Number of Instructions Simulated
system.switch_cpus.committedOps             848757450                       # Number of Ops (including micro ops) Simulated
system.switch_cpus.committedInsts_total     848757450                       # Number of Instructions Simulated
system.switch_cpus.cpi                       0.435650                       # CPI: Cycles Per Instruction
system.switch_cpus.cpi_total                 0.435650                       # CPI: Total CPI of All Threads
system.switch_cpus.ipc                       2.295423                       # IPC: Instructions Per Cycle
system.switch_cpus.ipc_total                 2.295423                       # IPC: Total IPC of All Threads
system.switch_cpus.int_regfile_reads        949653062                       # number of integer regfile reads
system.switch_cpus.int_regfile_writes       502208206                       # number of integer regfile writes
system.switch_cpus.fp_regfile_reads         277934503                       # number of floating regfile reads
system.switch_cpus.fp_regfile_writes        246488401                       # number of floating regfile writes
system.switch_cpus.misc_regfile_reads         8396474                       # number of misc regfile reads
system.switch_cpus.misc_regfile_writes           6255                       # number of misc regfile writes
system.l2.tags.replacements                    485096                       # number of replacements
system.l2.tags.tagsinuse                  7995.269040                       # Cycle average of tags in use
system.l2.tags.total_refs                      219794                       # Total number of references to valid blocks.
system.l2.tags.sampled_refs                    493264                       # Sample count of references to valid blocks.
system.l2.tags.avg_refs                      0.445591                       # Average number of references to valid blocks.
system.l2.tags.warmup_cycle                         0                       # Cycle when the warmup percentage was hit.
system.l2.tags.occ_blocks::writebacks     5535.040265                       # Average occupied blocks per requestor
system.l2.tags.occ_blocks::switch_cpus.inst     7.699336                       # Average occupied blocks per requestor
system.l2.tags.occ_blocks::switch_cpus.data  2451.533239                       # Average occupied blocks per requestor
system.l2.tags.occ_blocks::cpu.inst          0.791912                       # Average occupied blocks per requestor
system.l2.tags.occ_blocks::cpu.data          0.204289                       # Average occupied blocks per requestor
system.l2.tags.occ_percent::writebacks       0.675664                       # Average percentage of cache occupancy
system.l2.tags.occ_percent::switch_cpus.inst     0.000940                       # Average percentage of cache occupancy
system.l2.tags.occ_percent::switch_cpus.data     0.299259                       # Average percentage of cache occupancy
system.l2.tags.occ_percent::cpu.inst         0.000097                       # Average percentage of cache occupancy
system.l2.tags.occ_percent::cpu.data         0.000025                       # Average percentage of cache occupancy
system.l2.tags.occ_percent::total            0.975985                       # Average percentage of cache occupancy
system.l2.ReadReq_hits::switch_cpus.inst           73                       # number of ReadReq hits
system.l2.ReadReq_hits::switch_cpus.data       135551                       # number of ReadReq hits
system.l2.ReadReq_hits::total                  135624                       # number of ReadReq hits
system.l2.Writeback_hits::writebacks           330162                       # number of Writeback hits
system.l2.Writeback_hits::total                330162                       # number of Writeback hits
system.l2.ReadExReq_hits::switch_cpus.data        52236                       # number of ReadExReq hits
system.l2.ReadExReq_hits::total                 52236                       # number of ReadExReq hits
system.l2.demand_hits::switch_cpus.inst            73                       # number of demand (read+write) hits
system.l2.demand_hits::switch_cpus.data        187787                       # number of demand (read+write) hits
system.l2.demand_hits::total                   187860                       # number of demand (read+write) hits
system.l2.overall_hits::switch_cpus.inst           73                       # number of overall hits
system.l2.overall_hits::switch_cpus.data       187787                       # number of overall hits
system.l2.overall_hits::total                  187860                       # number of overall hits
system.l2.ReadReq_misses::switch_cpus.inst          980                       # number of ReadReq misses
system.l2.ReadReq_misses::switch_cpus.data       246037                       # number of ReadReq misses
system.l2.ReadReq_misses::total                247017                       # number of ReadReq misses
system.l2.ReadExReq_misses::switch_cpus.data       245987                       # number of ReadExReq misses
system.l2.ReadExReq_misses::total              245987                       # number of ReadExReq misses
system.l2.demand_misses::switch_cpus.inst          980                       # number of demand (read+write) misses
system.l2.demand_misses::switch_cpus.data       492024                       # number of demand (read+write) misses
system.l2.demand_misses::total                 493004                       # number of demand (read+write) misses
system.l2.overall_misses::switch_cpus.inst          980                       # number of overall misses
system.l2.overall_misses::switch_cpus.data       492024                       # number of overall misses
system.l2.overall_misses::total                493004                       # number of overall misses
system.l2.ReadReq_miss_latency::switch_cpus.inst     66354250                       # number of ReadReq miss cycles
system.l2.ReadReq_miss_latency::switch_cpus.data  15042519250                       # number of ReadReq miss cycles
system.l2.ReadReq_miss_latency::total     15108873500                       # number of ReadReq miss cycles
system.l2.ReadExReq_miss_latency::switch_cpus.data  15340794000                       # number of ReadExReq miss cycles
system.l2.ReadExReq_miss_latency::total   15340794000                       # number of ReadExReq miss cycles
system.l2.demand_miss_latency::switch_cpus.inst     66354250                       # number of demand (read+write) miss cycles
system.l2.demand_miss_latency::switch_cpus.data  30383313250                       # number of demand (read+write) miss cycles
system.l2.demand_miss_latency::total      30449667500                       # number of demand (read+write) miss cycles
system.l2.overall_miss_latency::switch_cpus.inst     66354250                       # number of overall miss cycles
system.l2.overall_miss_latency::switch_cpus.data  30383313250                       # number of overall miss cycles
system.l2.overall_miss_latency::total     30449667500                       # number of overall miss cycles
system.l2.ReadReq_accesses::switch_cpus.inst         1053                       # number of ReadReq accesses(hits+misses)
system.l2.ReadReq_accesses::switch_cpus.data       381588                       # number of ReadReq accesses(hits+misses)
system.l2.ReadReq_accesses::total              382641                       # number of ReadReq accesses(hits+misses)
system.l2.Writeback_accesses::writebacks       330162                       # number of Writeback accesses(hits+misses)
system.l2.Writeback_accesses::total            330162                       # number of Writeback accesses(hits+misses)
system.l2.ReadExReq_accesses::switch_cpus.data       298223                       # number of ReadExReq accesses(hits+misses)
system.l2.ReadExReq_accesses::total            298223                       # number of ReadExReq accesses(hits+misses)
system.l2.demand_accesses::switch_cpus.inst         1053                       # number of demand (read+write) accesses
[...]
system.cpu.icache.overall_mshr_hits::total          408                       # number of overall MSHR hits
system.cpu.icache.ReadReq_mshr_misses::switch_cpus.inst         1053                       # number of ReadReq MSHR misses
system.cpu.icache.ReadReq_mshr_misses::total         1053                       # number of ReadReq MSHR misses
system.cpu.icache.demand_mshr_misses::switch_cpus.inst         1053                       # number of demand (read+write) MSHR misses
system.cpu.icache.demand_mshr_misses::total         1053                       # number of demand (read+write) MSHR misses
system.cpu.icache.overall_mshr_misses::switch_cpus.inst         1053                       # number of overall MSHR misses
system.cpu.icache.overall_mshr_misses::total         1053                       # number of overall MSHR misses
system.cpu.icache.ReadReq_mshr_miss_latency::switch_cpus.inst     68147750                       # number of ReadReq MSHR miss cycles
system.cpu.icache.ReadReq_mshr_miss_latency::total     68147750                       # number of ReadReq MSHR miss cycles
system.cpu.icache.demand_mshr_miss_latency::switch_cpus.inst     68147750                       # number of demand (read+write) MSHR miss cycles
system.cpu.icache.demand_mshr_miss_latency::total     68147750                       # number of demand (read+write) MSHR miss cycles
system.cpu.icache.overall_mshr_miss_latency::switch_cpus.inst     68147750                       # number of overall MSHR miss cycles
system.cpu.icache.overall_mshr_miss_latency::total     68147750                       # number of overall MSHR miss cycles
system.cpu.icache.ReadReq_mshr_miss_rate::switch_cpus.inst     0.000014                       # mshr miss rate for ReadReq accesses
system.cpu.icache.ReadReq_mshr_miss_rate::total     0.000014                       # mshr miss rate for ReadReq accesses
system.cpu.icache.demand_mshr_miss_rate::switch_cpus.inst     0.000014                       # mshr miss rate for demand accesses
system.cpu.icache.demand_mshr_miss_rate::total     0.000014                       # mshr miss rate for demand accesses
system.cpu.icache.overall_mshr_miss_rate::switch_cpus.inst     0.000014                       # mshr miss rate for overall accesses
system.cpu.icache.overall_mshr_miss_rate::total     0.000014                       # mshr miss rate for overall accesses
system.cpu.icache.ReadReq_avg_mshr_miss_latency::switch_cpus.inst 64717.711301                       # average ReadReq mshr miss latency
system.cpu.icache.ReadReq_avg_mshr_miss_latency::total 64717.711301                       # average ReadReq mshr miss latency
system.cpu.icache.demand_avg_mshr_miss_latency::switch_cpus.inst 64717.711301                       # average overall mshr miss latency
system.cpu.icache.demand_avg_mshr_miss_latency::total 64717.711301                       # average overall mshr miss latency
system.cpu.icache.overall_avg_mshr_miss_latency::switch_cpus.inst 64717.711301                       # average overall mshr miss latency
system.cpu.icache.overall_avg_mshr_miss_latency::total 64717.711301                       # average overall mshr miss latency
system.cpu.icache.no_allocate_misses                0                       # Number of misses that were no-allocate
system.cpu.dcache.tags.replacements            679408                       # number of replacements
system.cpu.dcache.tags.tagsinuse           480.870478                       # Cycle average of tags in use
system.cpu.dcache.tags.total_refs           288270115                       # Total number of references to valid blocks.
system.cpu.dcache.tags.sampled_refs            679889                       # Sample count of references to valid blocks.
system.cpu.dcache.tags.avg_refs            423.995851                       # Average number of references to valid blocks.
system.cpu.dcache.tags.warmup_cycle                 0                       # Cycle when the warmup percentage was hit.
system.cpu.dcache.tags.occ_blocks::switch_cpus.data   480.854255                       # Average occupied blocks per requestor
system.cpu.dcache.tags.occ_blocks::cpu.data     0.016223                       # Average occupied blocks per requestor
system.cpu.dcache.tags.occ_percent::switch_cpus.data     0.939168                       # Average percentage of cache occupancy
system.cpu.dcache.tags.occ_percent::cpu.data     0.000032                       # Average percentage of cache occupancy
system.cpu.dcache.tags.occ_percent::total     0.939200                       # Average percentage of cache occupancy
system.cpu.dcache.ReadReq_hits::switch_cpus.data    208272241                       # number of ReadReq hits
system.cpu.dcache.ReadReq_hits::total       208272241                       # number of ReadReq hits
system.cpu.dcache.WriteReq_hits::switch_cpus.data     79992660                       # number of WriteReq hits
system.cpu.dcache.WriteReq_hits::total       79992660                       # number of WriteReq hits
system.cpu.dcache.LoadLockedReq_hits::switch_cpus.data         1586                       # number of LoadLockedReq hits
system.cpu.dcache.LoadLockedReq_hits::total         1586                       # number of LoadLockedReq hits
system.cpu.dcache.StoreCondReq_hits::switch_cpus.data         3127                       # number of StoreCondReq hits
system.cpu.dcache.StoreCondReq_hits::total         3127                       # number of StoreCondReq hits
system.cpu.dcache.demand_hits::switch_cpus.data    288264901                       # number of demand (read+write) hits
system.cpu.dcache.demand_hits::total        288264901                       # number of demand (read+write) hits
system.cpu.dcache.overall_hits::switch_cpus.data    288264901                       # number of overall hits
system.cpu.dcache.overall_hits::total       288264901                       # number of overall hits
system.cpu.dcache.ReadReq_misses::switch_cpus.data      1306089                       # number of ReadReq misses
system.cpu.dcache.ReadReq_misses::total       1306089                       # number of ReadReq misses
system.cpu.dcache.WriteReq_misses::switch_cpus.data      1051128                       # number of WriteReq misses
system.cpu.dcache.WriteReq_misses::total      1051128                       # number of WriteReq misses
system.cpu.dcache.LoadLockedReq_misses::switch_cpus.data         1543                       # number of LoadLockedReq misses
system.cpu.dcache.LoadLockedReq_misses::total         1543                       # number of LoadLockedReq misses
system.cpu.dcache.demand_misses::switch_cpus.data      2357217                       # number of demand (read+write) misses
system.cpu.dcache.demand_misses::total        2357217                       # number of demand (read+write) misses
system.cpu.dcache.overall_misses::switch_cpus.data      2357217                       # number of overall misses
system.cpu.dcache.overall_misses::total       2357217                       # number of overall misses
system.cpu.dcache.ReadReq_miss_latency::switch_cpus.data  57173452750                       # number of ReadReq miss cycles
system.cpu.dcache.ReadReq_miss_latency::total  57173452750                       # number of ReadReq miss cycles
system.cpu.dcache.WriteReq_miss_latency::switch_cpus.data  47090377728                       # number of WriteReq miss cycles
system.cpu.dcache.WriteReq_miss_latency::total  47090377728                       # number of WriteReq miss cycles
system.cpu.dcache.LoadLockedReq_miss_latency::switch_cpus.data     21161000                       # number of LoadLockedReq miss cycles
system.cpu.dcache.LoadLockedReq_miss_latency::total     21161000                       # number of LoadLockedReq miss cycles
system.cpu.dcache.demand_miss_latency::switch_cpus.data 104263830478                       # number of demand (read+write) miss cycles
system.cpu.dcache.demand_miss_latency::total 104263830478                       # number of demand (read+write) miss cycles
system.cpu.dcache.overall_miss_latency::switch_cpus.data 104263830478                       # number of overall miss cycles
system.cpu.dcache.overall_miss_latency::total 104263830478                       # number of overall miss cycles
system.cpu.dcache.ReadReq_accesses::switch_cpus.data    209578330                       # number of ReadReq accesses(hits+misses)
system.cpu.dcache.ReadReq_accesses::total    209578330                       # number of ReadReq accesses(hits+misses)
system.cpu.dcache.WriteReq_accesses::switch_cpus.data     81043788                       # number of WriteReq accesses(hits+misses)
system.cpu.dcache.WriteReq_accesses::total     81043788                       # number of WriteReq accesses(hits+misses)
system.cpu.dcache.LoadLockedReq_accesses::switch_cpus.data         3129                       # number of LoadLockedReq accesses(hits+misses)
system.cpu.dcache.LoadLockedReq_accesses::total         3129                       # number of LoadLockedReq accesses(hits+misses)
system.cpu.dcache.StoreCondReq_accesses::switch_cpus.data         3127                       # number of StoreCondReq accesses(hits+misses)
system.cpu.dcache.StoreCondReq_accesses::total         3127                       # number of StoreCondReq accesses(hits+misses)
system.cpu.dcache.demand_accesses::switch_cpus.data    290622118                       # number of demand (read+write) accesses
system.cpu.dcache.demand_accesses::total    290622118                       # number of demand (read+write) accesses
system.cpu.dcache.overall_accesses::switch_cpus.data    290622118                       # number of overall (read+write) accesses
system.cpu.dcache.overall_accesses::total    290622118                       # number of overall (read+write) accesses
system.cpu.dcache.ReadReq_miss_rate::switch_cpus.data     0.006232                       # miss rate for ReadReq accesses
system.cpu.dcache.ReadReq_miss_rate::total     0.006232                       # miss rate for ReadReq accesses
system.cpu.dcache.WriteReq_miss_rate::switch_cpus.data     0.012970                       # miss rate for WriteReq accesses
system.cpu.dcache.WriteReq_miss_rate::total     0.012970                       # miss rate for WriteReq accesses
system.cpu.dcache.LoadLockedReq_miss_rate::switch_cpus.data     0.493129                       # miss rate for LoadLockedReq accesses
system.cpu.dcache.LoadLockedReq_miss_rate::total     0.493129                       # miss rate for LoadLockedReq accesses
system.cpu.dcache.demand_miss_rate::switch_cpus.data     0.008111                       # miss rate for demand accesses
system.cpu.dcache.demand_miss_rate::total     0.008111                       # miss rate for demand accesses
system.cpu.dcache.overall_miss_rate::switch_cpus.data     0.008111                       # miss rate for overall accesses
system.cpu.dcache.overall_miss_rate::total     0.008111                       # miss rate for overall accesses
system.cpu.dcache.ReadReq_avg_miss_latency::switch_cpus.data 43774.545800                       # average ReadReq miss latency
system.cpu.dcache.ReadReq_avg_miss_latency::total 43774.545800                       # average ReadReq miss latency
system.cpu.dcache.WriteReq_avg_miss_latency::switch_cpus.data 44799.850949                       # average WriteReq miss latency
system.cpu.dcache.WriteReq_avg_miss_latency::total 44799.850949                       # average WriteReq miss latency
system.cpu.dcache.LoadLockedReq_avg_miss_latency::switch_cpus.data 13714.193130                       # average LoadLockedReq miss latency
system.cpu.dcache.LoadLockedReq_avg_miss_latency::total 13714.193130                       # average LoadLockedReq miss latency
system.cpu.dcache.demand_avg_miss_latency::switch_cpus.data 44231.748913                       # average overall miss latency
system.cpu.dcache.demand_avg_miss_latency::total 44231.748913                       # average overall miss latency
system.cpu.dcache.overall_avg_miss_latency::switch_cpus.data 44231.748913                       # average overall miss latency
system.cpu.dcache.overall_avg_miss_latency::total 44231.748913                       # average overall miss latency
system.cpu.dcache.blocked_cycles::no_mshrs         6042                       # number of cycles access was blocked
system.cpu.dcache.blocked_cycles::no_targets            0                       # number of cycles access was blocked
system.cpu.dcache.blocked::no_mshrs               188                       # number of cycles access was blocked
system.cpu.dcache.blocked::no_targets               0                       # number of cycles access was blocked
system.cpu.dcache.avg_blocked_cycles::no_mshrs    32.138298                       # average number of cycles each access was blocked
system.cpu.dcache.avg_blocked_cycles::no_targets          nan                       # average number of cycles each access was blocked
system.cpu.dcache.fast_writes                       0                       # number of fast writes performed
system.cpu.dcache.cache_copies                      0                       # number of cache copies performed
system.cpu.dcache.writebacks::writebacks       330162                       # number of writebacks
system.cpu.dcache.writebacks::total            330162                       # number of writebacks
system.cpu.dcache.ReadReq_mshr_hits::switch_cpus.data       924503                       # number of ReadReq MSHR hits
system.cpu.dcache.ReadReq_mshr_hits::total       924503                       # number of ReadReq MSHR hits
system.cpu.dcache.WriteReq_mshr_hits::switch_cpus.data       752905                       # number of WriteReq MSHR hits
system.cpu.dcache.WriteReq_mshr_hits::total       752905                       # number of WriteReq MSHR hits
system.cpu.dcache.LoadLockedReq_mshr_hits::switch_cpus.data         1541                       # number of LoadLockedReq MSHR hits
system.cpu.dcache.LoadLockedReq_mshr_hits::total         1541                       # number of LoadLockedReq MSHR hits
system.cpu.dcache.demand_mshr_hits::switch_cpus.data      1677408                       # number of demand (read+write) MSHR hits
system.cpu.dcache.demand_mshr_hits::total      1677408                       # number of demand (read+write) MSHR hits
system.cpu.dcache.overall_mshr_hits::switch_cpus.data      1677408                       # number of overall MSHR hits
system.cpu.dcache.overall_mshr_hits::total      1677408                       # number of overall MSHR hits
system.cpu.dcache.ReadReq_mshr_misses::switch_cpus.data       381586                       # number of ReadReq MSHR misses
system.cpu.dcache.ReadReq_mshr_misses::total       381586                       # number of ReadReq MSHR misses
system.cpu.dcache.WriteReq_mshr_misses::switch_cpus.data       298223                       # number of WriteReq MSHR misses
system.cpu.dcache.WriteReq_mshr_misses::total       298223                       # number of WriteReq MSHR misses
system.cpu.dcache.LoadLockedReq_mshr_misses::switch_cpus.data            2                       # number of LoadLockedReq MSHR misses
system.cpu.dcache.LoadLockedReq_mshr_misses::total            2                       # number of LoadLockedReq MSHR misses
system.cpu.dcache.demand_mshr_misses::switch_cpus.data       679809                       # number of demand (read+write) MSHR misses
system.cpu.dcache.demand_mshr_misses::total       679809                       # number of demand (read+write) MSHR misses
system.cpu.dcache.overall_mshr_misses::switch_cpus.data       679809                       # number of overall MSHR misses
system.cpu.dcache.overall_mshr_misses::total       679809                       # number of overall MSHR misses
system.cpu.dcache.ReadReq_mshr_miss_latency::switch_cpus.data  16784588750                       # number of ReadReq MSHR miss cycles
system.cpu.dcache.ReadReq_mshr_miss_latency::total  16784588750                       # number of ReadReq MSHR miss cycles
system.cpu.dcache.WriteReq_mshr_miss_latency::switch_cpus.data  16166631500                       # number of WriteReq MSHR miss cycles
system.cpu.dcache.WriteReq_mshr_miss_latency::total  16166631500                       # number of WriteReq MSHR miss cycles
system.cpu.dcache.LoadLockedReq_mshr_miss_latency::switch_cpus.data       122500                       # number of LoadLockedReq MSHR miss cycles
system.cpu.dcache.LoadLockedReq_mshr_miss_latency::total       122500                       # number of LoadLockedReq MSHR miss cycles
system.cpu.dcache.demand_mshr_miss_latency::switch_cpus.data  32951220250                       # number of demand (read+write) MSHR miss cycles
system.cpu.dcache.demand_mshr_miss_latency::total  32951220250                       # number of demand (read+write) MSHR miss cycles
system.cpu.dcache.overall_mshr_miss_latency::switch_cpus.data  32951220250                       # number of overall MSHR miss cycles
system.cpu.dcache.overall_mshr_miss_latency::total  32951220250                       # number of overall MSHR miss cycles
system.cpu.dcache.ReadReq_mshr_miss_rate::switch_cpus.data     0.001821                       # mshr miss rate for ReadReq accesses
system.cpu.dcache.ReadReq_mshr_miss_rate::total     0.001821                       # mshr miss rate for ReadReq accesses
system.cpu.dcache.WriteReq_mshr_miss_rate::switch_cpus.data     0.003680                       # mshr miss rate for WriteReq accesses
system.cpu.dcache.WriteReq_mshr_miss_rate::total     0.003680                       # mshr miss rate for WriteReq accesses
system.cpu.dcache.LoadLockedReq_mshr_miss_rate::switch_cpus.data     0.000639                       # mshr miss rate for LoadLockedReq accesses
system.cpu.dcache.LoadLockedReq_mshr_miss_rate::total     0.000639                       # mshr miss rate for LoadLockedReq accesses
system.cpu.dcache.demand_mshr_miss_rate::switch_cpus.data     0.002339                       # mshr miss rate for demand accesses
system.cpu.dcache.demand_mshr_miss_rate::total     0.002339                       # mshr miss rate for demand accesses
system.cpu.dcache.overall_mshr_miss_rate::switch_cpus.data     0.002339                       # mshr miss rate for overall accesses
system.cpu.dcache.overall_mshr_miss_rate::total     0.002339                       # mshr miss rate for overall accesses
system.cpu.dcache.ReadReq_avg_mshr_miss_latency::switch_cpus.data 43986.385114                       # average ReadReq mshr miss latency
system.cpu.dcache.ReadReq_avg_mshr_miss_latency::total 43986.385114                       # average ReadReq mshr miss latency
system.cpu.dcache.WriteReq_avg_mshr_miss_latency::switch_cpus.data 54209.874825                       # average WriteReq mshr miss latency
system.cpu.dcache.WriteReq_avg_mshr_miss_latency::total 54209.874825                       # average WriteReq mshr miss latency
system.cpu.dcache.LoadLockedReq_avg_mshr_miss_latency::switch_cpus.data        61250                       # average LoadLockedReq mshr miss latency
system.cpu.dcache.LoadLockedReq_avg_mshr_miss_latency::total        61250                       # average LoadLockedReq mshr miss latency
system.cpu.dcache.demand_avg_mshr_miss_latency::switch_cpus.data 48471.291569                       # average overall mshr miss latency
system.cpu.dcache.demand_avg_mshr_miss_latency::total 48471.291569                       # average overall mshr miss latency
system.cpu.dcache.overall_avg_mshr_miss_latency::switch_cpus.data 48471.291569                       # average overall mshr miss latency
system.cpu.dcache.overall_avg_mshr_miss_latency::total 48471.291569                       # average overall mshr miss latency
system.cpu.dcache.no_allocate_misses                0                       # Number of misses that were no-allocate

---------- End Simulation Statistics   ----------
