
---------- Begin Simulation Statistics ----------
sim_seconds                                  0.184862                       # Number of seconds simulated
sim_ticks                                184861871500                       # Number of ticks simulated
final_tick                               184863582000                       # Number of ticks from beginning of simulation (restored from checkpoints and never reset)
sim_freq                                 1000000000000                       # Frequency of simulated ticks
host_inst_rate                                  55824                       # Simulator instruction rate (inst/s)
host_op_rate                                    55824                       # Simulator op (including micro ops) rate (op/s)
host_tick_rate                               12158682                       # Simulator tick rate (ticks/s)
host_mem_usage                                 750372                       # Number of bytes of host memory used
host_seconds                                 15204.11                       # Real time elapsed on the host
sim_insts                                   848760973                       # Number of instructions simulated
sim_ops                                     848760973                       # Number of ops (including micro ops) simulated
system.physmem.bytes_read::switch_cpus.inst        62464                       # Number of bytes read from this memory
system.physmem.bytes_read::switch_cpus.data     31489472                       # Number of bytes read from this memory
system.physmem.bytes_read::total             31551936                       # Number of bytes read from this memory
system.physmem.bytes_inst_read::switch_cpus.inst        62464                       # Number of instructions bytes read from this memory
system.physmem.bytes_inst_read::total           62464                       # Number of instructions bytes read from this memory
system.physmem.bytes_written::writebacks     15738048                       # Number of bytes written to this memory
system.physmem.bytes_written::total          15738048                       # Number of bytes written to this memory
system.physmem.num_reads::switch_cpus.inst          976                       # Number of read requests responded to by this memory
system.physmem.num_reads::switch_cpus.data       492023                       # Number of read requests responded to by this memory
system.physmem.num_reads::total                492999                       # Number of read requests responded to by this memory
system.physmem.num_writes::writebacks          245907                       # Number of write requests responded to by this memory
system.physmem.num_writes::total               245907                       # Number of write requests responded to by this memory
system.physmem.bw_read::switch_cpus.inst       337896                       # Total read bandwidth from this memory (bytes/s)
system.physmem.bw_read::switch_cpus.data    170340545                       # Total read bandwidth from this memory (bytes/s)
system.physmem.bw_read::total               170678441                       # Total read bandwidth from this memory (bytes/s)
system.physmem.bw_inst_read::switch_cpus.inst       337896                       # Instruction read bandwidth from this memory (bytes/s)
system.physmem.bw_inst_read::total             337896                       # Instruction read bandwidth from this memory (bytes/s)
system.physmem.bw_write::writebacks          85134094                       # Write bandwidth from this memory (bytes/s)
system.physmem.bw_write::total               85134094                       # Write bandwidth from this memory (bytes/s)
system.physmem.bw_total::writebacks          85134094                       # Total bandwidth to/from this memory (bytes/s)
system.physmem.bw_total::switch_cpus.inst       337896                       # Total bandwidth to/from this memory (bytes/s)
system.physmem.bw_total::switch_cpus.data    170340545                       # Total bandwidth to/from this memory (bytes/s)
system.physmem.bw_total::total              255812535                       # Total bandwidth to/from this memory (bytes/s)
system.physmem.readReqs                        493000                       # Total number of read requests seen
system.physmem.writeReqs                       245907                       # Total number of write requests seen
system.physmem.cpureqs                         738907                       # Reqs generatd by CPU via cache - shady
system.physmem.bytesRead                     31551936                       # Total number of bytes read from memory
system.physmem.bytesWritten                  15738048                       # Total number of bytes written to memory
system.physmem.bytesConsumedRd               31551936                       # bytesRead derated as per pkt->getSize()
system.physmem.bytesConsumedWr               15738048                       # bytesWritten derated as per pkt->getSize()
system.physmem.servicedByWrQ                       14                       # Number of read reqs serviced by write Q
system.physmem.neitherReadNorWrite                  0                       # Reqs where no action is needed
system.physmem.perBankRdReqs::0                 30902                       # Track reads on a per bank basis
system.physmem.perBankRdReqs::1                 30791                       # Track reads on a per bank basis
system.physmem.perBankRdReqs::2                 30865                       # Track reads on a per bank basis
system.physmem.perBankRdReqs::3                 30735                       # Track reads on a per bank basis
system.physmem.perBankRdReqs::4                 30763                       # Track reads on a per bank basis
system.physmem.perBankRdReqs::5                 30769                       # Track reads on a per bank basis
system.physmem.perBankRdReqs::6                 30767                       # Track reads on a per bank basis
system.physmem.perBankRdReqs::7                 30810                       # Track reads on a per bank basis
system.physmem.perBankRdReqs::8                 30747                       # Track reads on a per bank basis
system.physmem.perBankRdReqs::9                 30758                       # Track reads on a per bank basis
system.physmem.perBankRdReqs::10                30757                       # Track reads on a per bank basis
system.physmem.perBankRdReqs::11                30883                       # Track reads on a per bank basis
system.physmem.perBankRdReqs::12                30911                       # Track reads on a per bank basis
system.physmem.perBankRdReqs::13                30853                       # Track reads on a per bank basis
system.physmem.perBankRdReqs::14                30772                       # Track reads on a per bank basis
system.physmem.perBankRdReqs::15                30903                       # Track reads on a per bank basis
system.physmem.perBankWrReqs::0                 15361                       # Track writes on a per bank basis
system.physmem.perBankWrReqs::1                 15361                       # Track writes on a per bank basis
system.physmem.perBankWrReqs::2                 15360                       # Track writes on a per bank basis
system.physmem.perBankWrReqs::3                 15360                       # Track writes on a per bank basis
system.physmem.perBankWrReqs::4                 15368                       # Track writes on a per bank basis
system.physmem.perBankWrReqs::5                 15406                       # Track writes on a per bank basis
system.physmem.perBankWrReqs::6                 15360                       # Track writes on a per bank basis
system.physmem.perBankWrReqs::7                 15360                       # Track writes on a per bank basis
system.physmem.perBankWrReqs::8                 15360                       # Track writes on a per bank basis
system.physmem.perBankWrReqs::9                 15360                       # Track writes on a per bank basis
system.physmem.perBankWrReqs::10                15361                       # Track writes on a per bank basis
system.physmem.perBankWrReqs::11                15409                       # Track writes on a per bank basis
system.physmem.perBankWrReqs::12                15395                       # Track writes on a per bank basis
system.physmem.perBankWrReqs::13                15360                       # Track writes on a per bank basis
system.physmem.perBankWrReqs::14                15366                       # Track writes on a per bank basis
system.physmem.perBankWrReqs::15                15360                       # Track writes on a per bank basis
system.physmem.numRdRetry                           0                       # Number of times rd buffer was full causing retry
system.physmem.numWrRetry                           0                       # Number of times wr buffer was full causing retry
system.physmem.totGap                    184861841500                       # Total gap between requests
system.physmem.readPktSize::0                       0                       # Categorize read packet sizes
system.physmem.readPktSize::1                       0                       # Categorize read packet sizes
system.physmem.readPktSize::2                       0                       # Categorize read packet sizes
system.physmem.readPktSize::3                       0                       # Categorize read packet sizes
system.physmem.readPktSize::4                       0                       # Categorize read packet sizes
system.physmem.readPktSize::5                       0                       # Categorize read packet sizes
system.physmem.readPktSize::6                  493000                       # Categorize read packet sizes
system.physmem.writePktSize::0                      0                       # Categorize write packet sizes
system.physmem.writePktSize::1                      0                       # Categorize write packet sizes
system.physmem.writePktSize::2                      0                       # Categorize write packet sizes
system.physmem.writePktSize::3                      0                       # Categorize write packet sizes
system.physmem.writePktSize::4                      0                       # Categorize write packet sizes
system.physmem.writePktSize::5                      0                       # Categorize write packet sizes
system.physmem.writePktSize::6                 245907                       # Categorize write packet sizes
system.physmem.rdQLenPdf::0                    492431                       # What read queue length does an incoming req see
system.physmem.rdQLenPdf::1                       420                       # What read queue length does an incoming req see
system.physmem.rdQLenPdf::2                       111                       # What read queue length does an incoming req see
system.physmem.rdQLenPdf::3                        22                       # What read queue length does an incoming req see
system.physmem.rdQLenPdf::4                         2                       # What read queue length does an incoming req see
system.physmem.rdQLenPdf::5                         0                       # What read queue length does an incoming req see
system.physmem.rdQLenPdf::6                         0                       # What read queue length does an incoming req see
system.physmem.rdQLenPdf::7                         0                       # What read queue length does an incoming req see
system.physmem.rdQLenPdf::8                         0                       # What read queue length does an incoming req see
system.physmem.rdQLenPdf::9                         0                       # What read queue length does an incoming req see
system.physmem.rdQLenPdf::10                        0                       # What read queue length does an incoming req see
system.physmem.rdQLenPdf::11                        0                       # What read queue length does an incoming req see
system.physmem.rdQLenPdf::12                        0                       # What read queue length does an incoming req see
system.physmem.rdQLenPdf::13                        0                       # What read queue length does an incoming req see
system.physmem.rdQLenPdf::14                        0                       # What read queue length does an incoming req see
system.physmem.rdQLenPdf::15                        0                       # What read queue length does an incoming req see
system.physmem.rdQLenPdf::16                        0                       # What read queue length does an incoming req see
system.physmem.rdQLenPdf::17                        0                       # What read queue length does an incoming req see
system.physmem.rdQLenPdf::18                        0                       # What read queue length does an incoming req see
system.physmem.rdQLenPdf::19                        0                       # What read queue length does an incoming req see
system.physmem.rdQLenPdf::20                        0                       # What read queue length does an incoming req see
system.physmem.rdQLenPdf::21                        0                       # What read queue length does an incoming req see
system.physmem.rdQLenPdf::22                        0                       # What read queue length does an incoming req see
system.physmem.rdQLenPdf::23                        0                       # What read queue length does an incoming req see
system.physmem.rdQLenPdf::24                        0                       # What read queue length does an incoming req see
system.physmem.rdQLenPdf::25                        0                       # What read queue length does an incoming req see
system.physmem.rdQLenPdf::26                        0                       # What read queue length does an incoming req see
system.physmem.rdQLenPdf::27                        0                       # What read queue length does an incoming req see
system.physmem.rdQLenPdf::28                        0                       # What read queue length does an incoming req see
system.physmem.rdQLenPdf::29                        0                       # What read queue length does an incoming req see
system.physmem.rdQLenPdf::30                        0                       # What read queue length does an incoming req see
system.physmem.rdQLenPdf::31                        0                       # What read queue length does an incoming req see
system.physmem.wrQLenPdf::0                     10684                       # What write queue length does an incoming req see
system.physmem.wrQLenPdf::1                     10691                       # What write queue length does an incoming req see
system.physmem.wrQLenPdf::2                     10692                       # What write queue length does an incoming req see
system.physmem.wrQLenPdf::3                     10692                       # What write queue length does an incoming req see
system.physmem.wrQLenPdf::4                     10692                       # What write queue length does an incoming req see
system.physmem.wrQLenPdf::5                     10692                       # What write queue length does an incoming req see
system.physmem.wrQLenPdf::6                     10692                       # What write queue length does an incoming req see
system.physmem.wrQLenPdf::7                     10692                       # What write queue length does an incoming req see
system.physmem.wrQLenPdf::8                     10692                       # What write queue length does an incoming req see
system.physmem.wrQLenPdf::9                     10692                       # What write queue length does an incoming req see
system.physmem.wrQLenPdf::10                    10692                       # What write queue length does an incoming req see
system.physmem.wrQLenPdf::11                    10692                       # What write queue length does an incoming req see
system.physmem.wrQLenPdf::12                    10692                       # What write queue length does an incoming req see
system.physmem.wrQLenPdf::13                    10692                       # What write queue length does an incoming req see
system.physmem.wrQLenPdf::14                    10691                       # What write queue length does an incoming req see
system.physmem.wrQLenPdf::15                    10691                       # What write queue length does an incoming req see
system.physmem.wrQLenPdf::16                    10691                       # What write queue length does an incoming req see
system.physmem.wrQLenPdf::17                    10691                       # What write queue length does an incoming req see
system.physmem.wrQLenPdf::18                    10691                       # What write queue length does an incoming req see
system.physmem.wrQLenPdf::19                    10691                       # What write queue length does an incoming req see
system.physmem.wrQLenPdf::20                    10691                       # What write queue length does an incoming req see
system.physmem.wrQLenPdf::21                    10691                       # What write queue length does an incoming req see
system.physmem.wrQLenPdf::22                    10691                       # What write queue length does an incoming req see
system.physmem.wrQLenPdf::23                        8                       # What write queue length does an incoming req see
system.physmem.wrQLenPdf::24                        1                       # What write queue length does an incoming req see
system.physmem.wrQLenPdf::25                        0                       # What write queue length does an incoming req see
system.physmem.wrQLenPdf::26                        0                       # What write queue length does an incoming req see
system.physmem.wrQLenPdf::27                        0                       # What write queue length does an incoming req see
system.physmem.wrQLenPdf::28                        0                       # What write queue length does an incoming req see
system.physmem.wrQLenPdf::29                        0                       # What write queue length does an incoming req see
system.physmem.wrQLenPdf::30                        0                       # What write queue length does an incoming req see
system.physmem.wrQLenPdf::31                        0                       # What write queue length does an incoming req see
system.physmem.bytesPerActivate::samples        35196                       # Bytes accessed per row activation
system.physmem.bytesPerActivate::mean     1342.114331                       # Bytes accessed per row activation
system.physmem.bytesPerActivate::gmean     620.392359                       # Bytes accessed per row activation
system.physmem.bytesPerActivate::stdev    1985.565747                       # Bytes accessed per row activation
system.physmem.bytesPerActivate::64-65           4308     12.24%     12.24% # Bytes accessed per row activation
system.physmem.bytesPerActivate::128-129         3600     10.23%     22.47% # Bytes accessed per row activation
system.physmem.bytesPerActivate::192-193          631      1.79%     24.26% # Bytes accessed per row activation
system.physmem.bytesPerActivate::256-257          582      1.65%     25.91% # Bytes accessed per row activation
system.physmem.bytesPerActivate::320-321          575      1.63%     27.55% # Bytes accessed per row activation
system.physmem.bytesPerActivate::384-385          642      1.82%     29.37% # Bytes accessed per row activation
system.physmem.bytesPerActivate::448-449         1477      4.20%     33.57% # Bytes accessed per row activation
system.physmem.bytesPerActivate::512-513         2205      6.26%     39.83% # Bytes accessed per row activation
system.physmem.bytesPerActivate::576-577          595      1.69%     41.52% # Bytes accessed per row activation
system.physmem.bytesPerActivate::640-641          602      1.71%     43.24% # Bytes accessed per row activation
system.physmem.bytesPerActivate::704-705          570      1.62%     44.85% # Bytes accessed per row activation
system.physmem.bytesPerActivate::768-769          721      2.05%     46.90% # Bytes accessed per row activation
system.physmem.bytesPerActivate::832-833          620      1.76%     48.66% # Bytes accessed per row activation
system.physmem.bytesPerActivate::896-897          774      2.20%     50.86% # Bytes accessed per row activation
system.physmem.bytesPerActivate::960-961         3194      9.07%     59.94% # Bytes accessed per row activation
system.physmem.bytesPerActivate::1024-1025         1884      5.35%     65.29% # Bytes accessed per row activation
system.physmem.bytesPerActivate::1088-1089          532      1.51%     66.80% # Bytes accessed per row activation
system.physmem.bytesPerActivate::1152-1153          521      1.48%     68.28% # Bytes accessed per row activation
system.physmem.bytesPerActivate::1216-1217          382      1.09%     69.37% # Bytes accessed per row activation
system.physmem.bytesPerActivate::1280-1281          523      1.49%     70.85% # Bytes accessed per row activation
system.physmem.bytesPerActivate::1344-1345          559      1.59%     72.44% # Bytes accessed per row activation
system.physmem.bytesPerActivate::1408-1409          745      2.12%     74.56% # Bytes accessed per row activation
system.physmem.bytesPerActivate::1472-1473         4546     12.92%     87.48% # Bytes accessed per row activation
system.physmem.bytesPerActivate::1536-1537          161      0.46%     87.93% # Bytes accessed per row activation
system.physmem.bytesPerActivate::1600-1601           85      0.24%     88.17% # Bytes accessed per row activation
system.physmem.bytesPerActivate::1664-1665           88      0.25%     88.42% # Bytes accessed per row activation
system.physmem.bytesPerActivate::1728-1729           74      0.21%     88.64% # Bytes accessed per row activation
system.physmem.bytesPerActivate::1792-1793           68      0.19%     88.83% # Bytes accessed per row activation
system.physmem.bytesPerActivate::1856-1857           74      0.21%     89.04% # Bytes accessed per row activation
system.physmem.bytesPerActivate::1920-1921           75      0.21%     89.25% # Bytes accessed per row activation
system.physmem.bytesPerActivate::1984-1985           83      0.24%     89.49% # Bytes accessed per row activation
system.physmem.bytesPerActivate::2048-2049           60      0.17%     89.66% # Bytes accessed per row activation
system.physmem.bytesPerActivate::2112-2113           91      0.26%     89.92% # Bytes accessed per row activation
system.physmem.bytesPerActivate::2176-2177           46      0.13%     90.05% # Bytes accessed per row activation
system.physmem.bytesPerActivate::2240-2241           39      0.11%     90.16% # Bytes accessed per row activation
system.physmem.bytesPerActivate::2304-2305           39      0.11%     90.27% # Bytes accessed per row activation
system.physmem.bytesPerActivate::2368-2369           33      0.09%     90.36% # Bytes accessed per row activation
system.physmem.bytesPerActivate::2432-2433           28      0.08%     90.44% # Bytes accessed per row activation
system.physmem.bytesPerActivate::2496-2497           19      0.05%     90.50% # Bytes accessed per row activation
system.physmem.bytesPerActivate::2560-2561           35      0.10%     90.60% # Bytes accessed per row activation
system.physmem.bytesPerActivate::2624-2625           33      0.09%     90.69% # Bytes accessed per row activation
system.physmem.bytesPerActivate::2688-2689           30      0.09%     90.77% # Bytes accessed per row activation
system.physmem.bytesPerActivate::2752-2753           18      0.05%     90.83% # Bytes accessed per row activation
system.physmem.bytesPerActivate::2816-2817           22      0.06%     90.89% # Bytes accessed per row activation
system.physmem.bytesPerActivate::2880-2881           26      0.07%     90.96% # Bytes accessed per row activation
system.physmem.bytesPerActivate::2944-2945           47      0.13%     91.10% # Bytes accessed per row activation
system.physmem.bytesPerActivate::3008-3009           26      0.07%     91.17% # Bytes accessed per row activation
system.physmem.bytesPerActivate::3072-3073           20      0.06%     91.23% # Bytes accessed per row activation
system.physmem.bytesPerActivate::3136-3137           14      0.04%     91.27% # Bytes accessed per row activation
system.physmem.bytesPerActivate::3200-3201           22      0.06%     91.33% # Bytes accessed per row activation
system.physmem.bytesPerActivate::3264-3265           15      0.04%     91.37% # Bytes accessed per row activation
system.physmem.bytesPerActivate::3328-3329           19      0.05%     91.43% # Bytes accessed per row activation
system.physmem.bytesPerActivate::3392-3393           23      0.07%     91.49% # Bytes accessed per row activation
system.physmem.bytesPerActivate::3456-3457           16      0.05%     91.54% # Bytes accessed per row activation
system.physmem.bytesPerActivate::3520-3521           19      0.05%     91.59% # Bytes accessed per row activation
system.physmem.bytesPerActivate::3584-3585           10      0.03%     91.62% # Bytes accessed per row activation
system.physmem.bytesPerActivate::3648-3649           12      0.03%     91.65% # Bytes accessed per row activation
system.physmem.bytesPerActivate::3712-3713           19      0.05%     91.71% # Bytes accessed per row activation
system.physmem.bytesPerActivate::3776-3777           12      0.03%     91.74% # Bytes accessed per row activation
system.physmem.bytesPerActivate::3840-3841           18      0.05%     91.79% # Bytes accessed per row activation
system.physmem.bytesPerActivate::3904-3905           18      0.05%     91.84% # Bytes accessed per row activation
system.physmem.bytesPerActivate::3968-3969           14      0.04%     91.88% # Bytes accessed per row activation
system.physmem.bytesPerActivate::4032-4033           36      0.10%     91.98% # Bytes accessed per row activation
system.physmem.bytesPerActivate::4096-4097           30      0.09%     92.07% # Bytes accessed per row activation
system.physmem.bytesPerActivate::4160-4161           33      0.09%     92.16% # Bytes accessed per row activation
system.physmem.bytesPerActivate::4224-4225           12      0.03%     92.20% # Bytes accessed per row activation
system.physmem.bytesPerActivate::4288-4289           18      0.05%     92.25% # Bytes accessed per row activation
system.physmem.bytesPerActivate::4352-4353           14      0.04%     92.29% # Bytes accessed per row activation
system.physmem.bytesPerActivate::4416-4417           13      0.04%     92.33% # Bytes accessed per row activation
system.physmem.bytesPerActivate::4480-4481           11      0.03%     92.36% # Bytes accessed per row activation
system.physmem.bytesPerActivate::4544-4545           12      0.03%     92.39% # Bytes accessed per row activation
system.physmem.bytesPerActivate::4608-4609           13      0.04%     92.43% # Bytes accessed per row activation
system.physmem.bytesPerActivate::4672-4673            5      0.01%     92.44% # Bytes accessed per row activation
system.physmem.bytesPerActivate::4736-4737            7      0.02%     92.46% # Bytes accessed per row activation
system.physmem.bytesPerActivate::4800-4801            9      0.03%     92.49% # Bytes accessed per row activation
system.physmem.bytesPerActivate::4864-4865           12      0.03%     92.52% # Bytes accessed per row activation
system.physmem.bytesPerActivate::4928-4929           14      0.04%     92.56% # Bytes accessed per row activation
system.physmem.bytesPerActivate::4992-4993           11      0.03%     92.59% # Bytes accessed per row activation
system.physmem.bytesPerActivate::5056-5057            6      0.02%     92.61% # Bytes accessed per row activation
system.physmem.bytesPerActivate::5120-5121            7      0.02%     92.63% # Bytes accessed per row activation
system.physmem.bytesPerActivate::5184-5185            5      0.01%     92.64% # Bytes accessed per row activation
system.physmem.bytesPerActivate::5248-5249            9      0.03%     92.67% # Bytes accessed per row activation
system.physmem.bytesPerActivate::5312-5313            9      0.03%     92.70% # Bytes accessed per row activation
system.physmem.bytesPerActivate::5376-5377            9      0.03%     92.72% # Bytes accessed per row activation
system.physmem.bytesPerActivate::5440-5441           10      0.03%     92.75% # Bytes accessed per row activation
system.physmem.bytesPerActivate::5504-5505           11      0.03%     92.78% # Bytes accessed per row activation
system.physmem.bytesPerActivate::5568-5569            8      0.02%     92.80% # Bytes accessed per row activation
system.physmem.bytesPerActivate::5632-5633           14      0.04%     92.84% # Bytes accessed per row activation
system.physmem.bytesPerActivate::5696-5697            5      0.01%     92.86% # Bytes accessed per row activation
system.physmem.bytesPerActivate::5760-5761            3      0.01%     92.87% # Bytes accessed per row activation
system.physmem.bytesPerActivate::5824-5825            4      0.01%     92.88% # Bytes accessed per row activation
system.physmem.bytesPerActivate::5888-5889            9      0.03%     92.90% # Bytes accessed per row activation
system.physmem.bytesPerActivate::5952-5953            6      0.02%     92.92% # Bytes accessed per row activation
system.physmem.bytesPerActivate::6016-6017           10      0.03%     92.95% # Bytes accessed per row activation
system.physmem.bytesPerActivate::6080-6081           28      0.08%     93.03% # Bytes accessed per row activation
system.physmem.bytesPerActivate::6144-6145            8      0.02%     93.05% # Bytes accessed per row activation
system.physmem.bytesPerActivate::6208-6209           28      0.08%     93.13% # Bytes accessed per row activation
system.physmem.bytesPerActivate::6272-6273            4      0.01%     93.14% # Bytes accessed per row activation
system.physmem.bytesPerActivate::6336-6337            6      0.02%     93.16% # Bytes accessed per row activation
system.physmem.bytesPerActivate::6400-6401            7      0.02%     93.18% # Bytes accessed per row activation
system.physmem.bytesPerActivate::6464-6465            4      0.01%     93.19% # Bytes accessed per row activation
system.physmem.bytesPerActivate::6528-6529            8      0.02%     93.21% # Bytes accessed per row activation
system.physmem.bytesPerActivate::6592-6593            8      0.02%     93.24% # Bytes accessed per row activation
system.physmem.bytesPerActivate::6656-6657            7      0.02%     93.25% # Bytes accessed per row activation
system.physmem.bytesPerActivate::6720-6721            8      0.02%     93.28% # Bytes accessed per row activation
system.physmem.bytesPerActivate::6784-6785            5      0.01%     93.29% # Bytes accessed per row activation
system.physmem.bytesPerActivate::6848-6849            6      0.02%     93.31% # Bytes accessed per row activation
system.physmem.bytesPerActivate::6912-6913            4      0.01%     93.32% # Bytes accessed per row activation
system.physmem.bytesPerActivate::6976-6977            7      0.02%     93.34% # Bytes accessed per row activation
system.physmem.bytesPerActivate::7040-7041            6      0.02%     93.36% # Bytes accessed per row activation
system.physmem.bytesPerActivate::7104-7105            8      0.02%     93.38% # Bytes accessed per row activation
system.physmem.bytesPerActivate::7168-7169            9      0.03%     93.41% # Bytes accessed per row activation
system.physmem.bytesPerActivate::7232-7233           17      0.05%     93.45% # Bytes accessed per row activation
system.physmem.bytesPerActivate::7296-7297           12      0.03%     93.49% # Bytes accessed per row activation
system.physmem.bytesPerActivate::7360-7361           14      0.04%     93.53% # Bytes accessed per row activation
system.physmem.bytesPerActivate::7424-7425            5      0.01%     93.54% # Bytes accessed per row activation
system.physmem.bytesPerActivate::7488-7489            6      0.02%     93.56% # Bytes accessed per row activation
system.physmem.bytesPerActivate::7552-7553            8      0.02%     93.58% # Bytes accessed per row activation
system.physmem.bytesPerActivate::7616-7617            6      0.02%     93.60% # Bytes accessed per row activation
system.physmem.bytesPerActivate::7680-7681           14      0.04%     93.64% # Bytes accessed per row activation
system.physmem.bytesPerActivate::7744-7745           10      0.03%     93.67% # Bytes accessed per row activation
system.physmem.bytesPerActivate::7808-7809            9      0.03%     93.69% # Bytes accessed per row activation
system.physmem.bytesPerActivate::7872-7873           13      0.04%     93.73% # Bytes accessed per row activation
system.physmem.bytesPerActivate::7936-7937            8      0.02%     93.75% # Bytes accessed per row activation
system.physmem.bytesPerActivate::8000-8001           15      0.04%     93.79% # Bytes accessed per row activation
system.physmem.bytesPerActivate::8064-8065           13      0.04%     93.83% # Bytes accessed per row activation
system.physmem.bytesPerActivate::8128-8129           33      0.09%     93.93% # Bytes accessed per row activation
system.physmem.bytesPerActivate::8192-8193         2138      6.07%    100.00% # Bytes accessed per row activation
system.physmem.bytesPerActivate::total          35196                       # Bytes accessed per row activation
system.physmem.totQLat                      339079000                       # Total cycles spent in queuing delays
system.physmem.totMemAccLat                9998710250                       # Sum of mem lat for all requests
system.physmem.totBusLat                   2464930000                       # Total cycles spent in databus access
system.physmem.totBankLat                  7194701250                       # Total cycles spent in bank access
system.physmem.avgQLat                         687.81                       # Average queueing delay per request
system.physmem.avgBankLat                    14594.13                       # Average bank access latency per request
system.physmem.avgBusLat                      5000.00                       # Average bus latency per request
system.physmem.avgMemAccLat                  20281.94                       # Average memory access latency
system.physmem.avgRdBW                         170.68                       # Average achieved read bandwidth in MB/s
system.physmem.avgWrBW                          85.13                       # Average achieved write bandwidth in MB/s
system.physmem.avgConsumedRdBW                 170.68                       # Average consumed read bandwidth in MB/s
system.physmem.avgConsumedWrBW                  85.13                       # Average consumed write bandwidth in MB/s
system.physmem.peakBW                        12800.00                       # Theoretical peak bandwidth in MB/s
system.physmem.busUtil                           2.00                       # Data bus utilization in percentage
system.physmem.avgRdQLen                         0.05                       # Average read queue length over time
system.physmem.avgWrQLen                        11.33                       # Average write queue length over time
system.physmem.readRowHits                     471676                       # Number of row buffer hits during reads
system.physmem.writeRowHits                    232007                       # Number of row buffer hits during writes
system.physmem.readRowHitRate                   95.68                       # Row buffer hit rate for reads
system.physmem.writeRowHitRate                  94.35                       # Row buffer hit rate for writes
system.physmem.avgGap                       250182.83                       # Average gap between requests
system.membus.throughput                    255812189                       # Throughput (bytes/s)
system.membus.trans_dist::ReadReq              247013                       # Transaction distribution
system.membus.trans_dist::ReadResp             247011                       # Transaction distribution
system.membus.trans_dist::Writeback            245907                       # Transaction distribution
system.membus.trans_dist::ReadExReq            245987                       # Transaction distribution
system.membus.trans_dist::ReadExResp           245987                       # Transaction distribution
system.membus.pkt_count_system.l2.mem_side      1231905                       # Packet count per connected master and slave (bytes)
system.membus.pkt_count                       1231905                       # Packet count per connected master and slave (bytes)
system.membus.tot_pkt_size_system.l2.mem_side     47289920                       # Cumulative packet size per connected master and slave (bytes)
system.membus.tot_pkt_size                   47289920                       # Cumulative packet size per connected master and slave (bytes)
system.membus.data_through_bus               47289920                       # Total data (bytes)
system.membus.snoop_data_through_bus                0                       # Total snoop data (bytes)
system.membus.reqLayer0.occupancy          1353081500                       # Layer occupancy (ticks)
system.membus.reqLayer0.utilization               0.7                       # Layer utilization (%)
system.membus.respLayer1.occupancy         2338606750                       # Layer occupancy (ticks)
system.membus.respLayer1.utilization              1.3                       # Layer utilization (%)
system.switch_cpus.branchPred.lookups        28915311                       # Number of BP lookups
system.switch_cpus.branchPred.condPredicted      9999681                       # Number of conditional branches predicted
system.switch_cpus.branchPred.condIncorrect        13787                       # Number of conditional branches incorrect
system.switch_cpus.branchPred.BTBLookups     18377227                       # Number of BTB lookups
system.switch_cpus.branchPred.BTBHits        18366251                       # Number of BTB hits
system.switch_cpus.branchPred.BTBCorrect            0                       # Number of correct BTB predictions (this stat may not work properly.
system.switch_cpus.branchPred.BTBHitPct     99.940274                       # BTB Hit Percentage
system.switch_cpus.branchPred.usedRAS         9450012                       # Number of times the RAS was used to get a target.
system.switch_cpus.branchPred.RASInCorrect          103                       # Number of incorrect RAS predictions.
system.switch_cpus.dtb.fetch_hits                   0                       # ITB hits
system.switch_cpus.dtb.fetch_misses                 0                       # ITB misses
system.switch_cpus.dtb.fetch_acv                    0                       # ITB acv
system.switch_cpus.dtb.fetch_accesses               0                       # ITB accesses
system.switch_cpus.dtb.read_hits            242277773                       # DTB read hits
system.switch_cpus.dtb.read_misses               4521                       # DTB read misses
system.switch_cpus.dtb.read_acv                     1                       # DTB read access violations
system.switch_cpus.dtb.read_accesses        242282294                       # DTB read accesses
system.switch_cpus.dtb.write_hits            81090129                       # DTB write hits
system.switch_cpus.dtb.write_misses              2252                       # DTB write misses
system.switch_cpus.dtb.write_acv                    0                       # DTB write access violations
system.switch_cpus.dtb.write_accesses        81092381                       # DTB write accesses
system.switch_cpus.dtb.data_hits            323367902                       # DTB hits
system.switch_cpus.dtb.data_misses               6773                       # DTB misses
system.switch_cpus.dtb.data_acv                     1                       # DTB access violations
system.switch_cpus.dtb.data_accesses        323374675                       # DTB accesses
system.switch_cpus.itb.fetch_hits            77406900                       # ITB hits
system.switch_cpus.itb.fetch_misses               101                       # ITB misses
system.switch_cpus.itb.fetch_acv                    0                       # ITB acv
system.switch_cpus.itb.fetch_accesses        77407001                       # ITB accesses
system.switch_cpus.itb.read_hits                    0                       # DTB read hits
system.switch_cpus.itb.read_misses                  0                       # DTB read misses
system.switch_cpus.itb.read_acv                     0                       # DTB read access violations
system.switch_cpus.itb.read_accesses                0                       # DTB read accesses
system.switch_cpus.itb.write_hits                   0                       # DTB write hits
system.switch_cpus.itb.write_misses                 0                       # DTB write misses
system.switch_cpus.itb.write_acv                    0                       # DTB write access violations
system.switch_cpus.itb.write_accesses               0                       # DTB write accesses
system.switch_cpus.itb.data_hits                    0                       # DTB hits
system.switch_cpus.itb.data_misses                  0                       # DTB misses
system.switch_cpus.itb.data_acv                     0                       # DTB access violations
system.switch_cpus.itb.data_accesses                0                       # DTB accesses
system.cpu.workload.num_syscalls                  503                       # Number of system calls
system.switch_cpus.numCycles                369723743                       # number of cpu cycles simulated
system.switch_cpus.numWorkItemsStarted              0                       # number of work items this cpu started
system.switch_cpus.numWorkItemsCompleted            0                       # number of work items this cpu completed
system.switch_cpus.fetch.icacheStallCycles     77448834                       # Number of cycles fetch is stalled on an Icache miss
system.switch_cpus.fetch.Insts              878425450                       # Number of instructions fetch has processed
system.switch_cpus.fetch.Branches            28915311                       # Number of branches that fetch encountered
system.switch_cpus.fetch.predictedBranches     27816263                       # Number of branches that fetch has predicted taken
system.switch_cpus.fetch.Cycles             128290905                       # Number of cycles fetch has run and was not squashing or blocked
system.switch_cpus.fetch.SquashCycles          158393                       # Number of cycles fetch has spent squashing
system.switch_cpus.fetch.BlockedCycles      131866166                       # Number of cycles fetch has spent blocked
system.switch_cpus.fetch.MiscStallCycles           63                       # Number of cycles fetch has spent waiting on interrupts, or bad addresses, or out of MSHRs
system.switch_cpus.fetch.PendingTrapStallCycles         1537                       # Number of stall cycles due to pending traps
system.switch_cpus.fetch.IcacheWaitRetryStallCycles           48                       # Number of stall cycles due to full MSHR
system.switch_cpus.fetch.CacheLines          77406900                       # Number of cache lines fetched
system.switch_cpus.fetch.IcacheSquashes          7217                       # Number of outstanding Icache misses that were squashed
system.switch_cpus.fetch.rateDist::samples    337735699                       # Number of instructions fetched each cycle (Total)
system.switch_cpus.fetch.rateDist::mean      2.600926                       # Number of instructions fetched each cycle (Total)
system.switch_cpus.fetch.rateDist::stdev     3.578231                       # Number of instructions fetched each cycle (Total)
system.switch_cpus.fetch.rateDist::underflows            0      0.00%      0.00% # Number of instructions fetched each cycle (Total)
system.switch_cpus.fetch.rateDist::0        209444794     62.01%     62.01% # Number of instructions fetched each cycle (Total)
system.switch_cpus.fetch.rateDist::1          4471845      1.32%     63.34% # Number of instructions fetched each cycle (Total)
system.switch_cpus.fetch.rateDist::2          8510407      2.52%     65.86% # Number of instructions fetched each cycle (Total)
system.switch_cpus.fetch.rateDist::3          4218456      1.25%     67.11% # Number of instructions fetched each cycle (Total)
system.switch_cpus.fetch.rateDist::4          5090538      1.51%     68.61% # Number of instructions fetched each cycle (Total)
system.switch_cpus.fetch.rateDist::5          2643210      0.78%     69.40% # Number of instructions fetched each cycle (Total)
system.switch_cpus.fetch.rateDist::6          6231501      1.85%     71.24% # Number of instructions fetched each cycle (Total)
system.switch_cpus.fetch.rateDist::7          3689369      1.09%     72.33% # Number of instructions fetched each cycle (Total)
system.switch_cpus.fetch.rateDist::8         93435579     27.67%    100.00% # Number of instructions fetched each cycle (Total)
system.switch_cpus.fetch.rateDist::overflows            0      0.00%    100.00% # Number of instructions fetched each cycle (Total)
system.switch_cpus.fetch.rateDist::min_value            0                       # Number of instructions fetched each cycle (Total)
system.switch_cpus.fetch.rateDist::max_value            8                       # Number of instructions fetched each cycle (Total)
system.switch_cpus.fetch.rateDist::total    337735699                       # Number of instructions fetched each cycle (Total)
system.switch_cpus.fetch.branchRate          0.078208                       # Number of branch fetches per cycle
system.switch_cpus.fetch.rate                2.375897                       # Number of inst fetches per cycle
system.switch_cpus.decode.IdleCycles        105261640                       # Number of cycles decode is idle
system.switch_cpus.decode.BlockedCycles     104068257                       # Number of cycles decode is blocked
system.switch_cpus.decode.RunCycles         105578156                       # Number of cycles decode is running
system.switch_cpus.decode.UnblockCycles      22699970                       # Number of cycles decode is unblocking
system.switch_cpus.decode.SquashCycles         127675                       # Number of cycles decode is squashing
system.switch_cpus.decode.BranchResolved      9461759                       # Number of times decode resolved a branch
system.switch_cpus.decode.BranchMispred           483                       # Number of times decode detected a branch misprediction
system.switch_cpus.decode.DecodedInsts      878332734                       # Number of instructions handled by decode
system.switch_cpus.decode.SquashedInsts          1542                       # Number of squashed instructions handled by decode
system.switch_cpus.rename.SquashCycles         127675                       # Number of cycles rename is squashing
system.switch_cpus.rename.IdleCycles        112514121                       # Number of cycles rename is idle
system.switch_cpus.rename.BlockCycles        45558093                       # Number of cycles rename is blocking
system.switch_cpus.rename.serializeStallCycles       373573                       # count of cycles rename stalled for serializing inst
system.switch_cpus.rename.RunCycles         121080888                       # Number of cycles rename is running
system.switch_cpus.rename.UnblockCycles      58081348                       # Number of cycles rename is unblocking
system.switch_cpus.rename.RenamedInsts      878198355                       # Number of instructions processed by rename
system.switch_cpus.rename.ROBFullEvents            31                       # Number of times rename has blocked due to ROB full
system.switch_cpus.rename.IQFullEvents          25313                       # Number of times rename has blocked due to IQ full
system.switch_cpus.rename.LSQFullEvents      53408193                       # Number of times rename has blocked due to LSQ full
system.switch_cpus.rename.RenamedOperands    749238955                       # Number of destination operands rename has renamed
system.switch_cpus.rename.RenameLookups    1228549669                       # Number of register rename lookups that rename has made
system.switch_cpus.rename.int_rename_lookups    855109582                       # Number of integer rename lookups
system.switch_cpus.rename.fp_rename_lookups    373440087                       # Number of floating rename lookups
system.switch_cpus.rename.CommittedMaps     748287981                       # Number of HB maps that are committed
system.switch_cpus.rename.UndoneMaps           950974                       # Number of HB maps that are undone due to squashing
system.switch_cpus.rename.serializingInsts         5817                       # count of serializing insts renamed
system.switch_cpus.rename.tempSerializingInsts         3735                       # count of temporary serializing insts renamed
system.switch_cpus.rename.skidInsts         174872798                       # count of insts added to the skid buffer
system.switch_cpus.memDep0.insertedLoads    242357286                       # Number of loads inserted to the mem dependence unit.
system.switch_cpus.memDep0.insertedStores     81140792                       # Number of stores inserted to the mem dependence unit.
system.switch_cpus.memDep0.conflictingLoads     31776328                       # Number of conflicting loads.
system.switch_cpus.memDep0.conflictingStores      2522562                       # Number of conflicting stores.
system.switch_cpus.iq.iqInstsAdded          849709474                       # Number of instructions added to the IQ (excludes non-spec)
system.switch_cpus.iq.iqNonSpecInstsAdded         6893                       # Number of non-speculative instructions added to the IQ
system.switch_cpus.iq.iqInstsIssued         849305666                       # Number of instructions issued
system.switch_cpus.iq.iqSquashedInstsIssued        11703                       # Number of squashed instructions issued
system.switch_cpus.iq.iqSquashedInstsExamined       949051                       # Number of squashed instructions iterated over during squash; mainly for profiling
system.switch_cpus.iq.iqSquashedOperandsExamined       768277                       # Number of squashed operands that are examined and possibly removed from graph
system.switch_cpus.iq.iqSquashedNonSpecRemoved          131                       # Number of squashed non-spec instructions that were removed
system.switch_cpus.iq.issued_per_cycle::samples    337735699                       # Number of insts issued each cycle
system.switch_cpus.iq.issued_per_cycle::mean     2.514705                       # Number of insts issued each cycle
system.switch_cpus.iq.issued_per_cycle::stdev     1.590361                       # Number of insts issued each cycle
system.switch_cpus.iq.issued_per_cycle::underflows            0      0.00%      0.00% # Number of insts issued each cycle
system.switch_cpus.iq.issued_per_cycle::0     35356306     10.47%     10.47% # Number of insts issued each cycle
system.switch_cpus.iq.issued_per_cycle::1     63018237     18.66%     29.13% # Number of insts issued each cycle
system.switch_cpus.iq.issued_per_cycle::2     77645446     22.99%     52.12% # Number of insts issued each cycle
system.switch_cpus.iq.issued_per_cycle::3     70360499     20.83%     72.95% # Number of insts issued each cycle
system.switch_cpus.iq.issued_per_cycle::4     50021610     14.81%     87.76% # Number of insts issued each cycle
system.switch_cpus.iq.issued_per_cycle::5     30197278      8.94%     96.70% # Number of insts issued each cycle
system.switch_cpus.iq.issued_per_cycle::6      9424911      2.79%     99.49% # Number of insts issued each cycle
system.switch_cpus.iq.issued_per_cycle::7      1398552      0.41%     99.91% # Number of insts issued each cycle
system.switch_cpus.iq.issued_per_cycle::8       312860      0.09%    100.00% # Number of insts issued each cycle
system.switch_cpus.iq.issued_per_cycle::overflows            0      0.00%    100.00% # Number of insts issued each cycle
system.switch_cpus.iq.issued_per_cycle::min_value            0                       # Number of insts issued each cycle
system.switch_cpus.iq.issued_per_cycle::max_value            8                       # Number of insts issued each cycle
system.switch_cpus.iq.issued_per_cycle::total    337735699                       # Number of insts issued each cycle
system.switch_cpus.iq.fu_full::No_OpClass            0      0.00%      0.00% # attempts to use FU when none available
system.switch_cpus.iq.fu_full::IntAlu           44378      0.41%      0.41% # attempts to use FU when none available
system.switch_cpus.iq.fu_full::IntMult              0      0.00%      0.41% # attempts to use FU when none available
system.switch_cpus.iq.fu_full::IntDiv               0      0.00%      0.41% # attempts to use FU when none available
system.switch_cpus.iq.fu_full::FloatAdd             0      0.00%      0.41% # attempts to use FU when none available
system.switch_cpus.iq.fu_full::FloatCmp             0      0.00%      0.41% # attempts to use FU when none available
system.switch_cpus.iq.fu_full::FloatCvt       1465262     13.65%     14.07% # attempts to use FU when none available
system.switch_cpus.iq.fu_full::FloatMult       749889      6.99%     21.05% # attempts to use FU when none available
system.switch_cpus.iq.fu_full::FloatDiv             0      0.00%     21.05% # attempts to use FU when none available
system.switch_cpus.iq.fu_full::FloatSqrt            0      0.00%     21.05% # attempts to use FU when none available
system.switch_cpus.iq.fu_full::SimdAdd              0      0.00%     21.05% # attempts to use FU when none available
system.switch_cpus.iq.fu_full::SimdAddAcc            0      0.00%     21.05% # attempts to use FU when none available
system.switch_cpus.iq.fu_full::SimdAlu              0      0.00%     21.05% # attempts to use FU when none available
system.switch_cpus.iq.fu_full::SimdCmp              0      0.00%     21.05% # attempts to use FU when none available
system.switch_cpus.iq.fu_full::SimdCvt              0      0.00%     21.05% # attempts to use FU when none available
system.switch_cpus.iq.fu_full::SimdMisc             0      0.00%     21.05% # attempts to use FU when none available
system.switch_cpus.iq.fu_full::SimdMult             0      0.00%     21.05% # attempts to use FU when none available
system.switch_cpus.iq.fu_full::SimdMultAcc            0      0.00%     21.05% # attempts to use FU when none available
system.switch_cpus.iq.fu_full::SimdShift            0      0.00%     21.05% # attempts to use FU when none available
system.switch_cpus.iq.fu_full::SimdShiftAcc            0      0.00%     21.05% # attempts to use FU when none available
system.switch_cpus.iq.fu_full::SimdSqrt             0      0.00%     21.05% # attempts to use FU when none available
system.switch_cpus.iq.fu_full::SimdFloatAdd            0      0.00%     21.05% # attempts to use FU when none available
system.switch_cpus.iq.fu_full::SimdFloatAlu            0      0.00%     21.05% # attempts to use FU when none available
system.switch_cpus.iq.fu_full::SimdFloatCmp            0      0.00%     21.05% # attempts to use FU when none available
system.switch_cpus.iq.fu_full::SimdFloatCvt            0      0.00%     21.05% # attempts to use FU when none available
system.switch_cpus.iq.fu_full::SimdFloatDiv            0      0.00%     21.05% # attempts to use FU when none available
system.switch_cpus.iq.fu_full::SimdFloatMisc            0      0.00%     21.05% # attempts to use FU when none available
system.switch_cpus.iq.fu_full::SimdFloatMult            0      0.00%     21.05% # attempts to use FU when none available
system.switch_cpus.iq.fu_full::SimdFloatMultAcc            0      0.00%     21.05% # attempts to use FU when none available
system.switch_cpus.iq.fu_full::SimdFloatSqrt            0      0.00%     21.05% # attempts to use FU when none available
system.switch_cpus.iq.fu_full::MemRead        4027530     37.52%     58.58% # attempts to use FU when none available
system.switch_cpus.iq.fu_full::MemWrite       4445906     41.42%    100.00% # attempts to use FU when none available
system.switch_cpus.iq.fu_full::IprAccess            0      0.00%    100.00% # attempts to use FU when none available
system.switch_cpus.iq.fu_full::InstPrefetch            0      0.00%    100.00% # attempts to use FU when none available
system.switch_cpus.iq.FU_type_0::No_OpClass          393      0.00%      0.00% # Type of FU issued
system.switch_cpus.iq.FU_type_0::IntAlu     299334369     35.24%     35.24% # Type of FU issued
system.switch_cpus.iq.FU_type_0::IntMult     18887772      2.22%     37.47% # Type of FU issued
system.switch_cpus.iq.FU_type_0::IntDiv             0      0.00%     37.47% # Type of FU issued
system.switch_cpus.iq.FU_type_0::FloatAdd    127957116     15.07%     52.53% # Type of FU issued
system.switch_cpus.iq.FU_type_0::FloatCmp            3      0.00%     52.53% # Type of FU issued
system.switch_cpus.iq.FU_type_0::FloatCvt     48252067      5.68%     58.22% # Type of FU issued
system.switch_cpus.iq.FU_type_0::FloatMult     28320067      3.33%     61.55% # Type of FU issued
system.switch_cpus.iq.FU_type_0::FloatDiv      3147058      0.37%     61.92% # Type of FU issued
system.switch_cpus.iq.FU_type_0::FloatSqrt            0      0.00%     61.92% # Type of FU issued
system.switch_cpus.iq.FU_type_0::SimdAdd            0      0.00%     61.92% # Type of FU issued
system.switch_cpus.iq.FU_type_0::SimdAddAcc            0      0.00%     61.92% # Type of FU issued
system.switch_cpus.iq.FU_type_0::SimdAlu            0      0.00%     61.92% # Type of FU issued
system.switch_cpus.iq.FU_type_0::SimdCmp            0      0.00%     61.92% # Type of FU issued
system.switch_cpus.iq.FU_type_0::SimdCvt            0      0.00%     61.92% # Type of FU issued
system.switch_cpus.iq.FU_type_0::SimdMisc            0      0.00%     61.92% # Type of FU issued
system.switch_cpus.iq.FU_type_0::SimdMult            0      0.00%     61.92% # Type of FU issued
system.switch_cpus.iq.FU_type_0::SimdMultAcc            0      0.00%     61.92% # Type of FU issued
system.switch_cpus.iq.FU_type_0::SimdShift            0      0.00%     61.92% # Type of FU issued
system.switch_cpus.iq.FU_type_0::SimdShiftAcc            0      0.00%     61.92% # Type of FU issued
system.switch_cpus.iq.FU_type_0::SimdSqrt            0      0.00%     61.92% # Type of FU issued
system.switch_cpus.iq.FU_type_0::SimdFloatAdd            0      0.00%     61.92% # Type of FU issued
system.switch_cpus.iq.FU_type_0::SimdFloatAlu            0      0.00%     61.92% # Type of FU issued
system.switch_cpus.iq.FU_type_0::SimdFloatCmp            0      0.00%     61.92% # Type of FU issued
system.switch_cpus.iq.FU_type_0::SimdFloatCvt            0      0.00%     61.92% # Type of FU issued
system.switch_cpus.iq.FU_type_0::SimdFloatDiv            0      0.00%     61.92% # Type of FU issued
system.switch_cpus.iq.FU_type_0::SimdFloatMisc            0      0.00%     61.92% # Type of FU issued
system.switch_cpus.iq.FU_type_0::SimdFloatMult            0      0.00%     61.92% # Type of FU issued
system.switch_cpus.iq.FU_type_0::SimdFloatMultAcc            0      0.00%     61.92% # Type of FU issued
system.switch_cpus.iq.FU_type_0::SimdFloatSqrt            0      0.00%     61.92% # Type of FU issued
system.switch_cpus.iq.FU_type_0::MemRead    242310305     28.53%     90.45% # Type of FU issued
system.switch_cpus.iq.FU_type_0::MemWrite     81096516      9.55%    100.00% # Type of FU issued
system.switch_cpus.iq.FU_type_0::IprAccess            0      0.00%    100.00% # Type of FU issued
system.switch_cpus.iq.FU_type_0::InstPrefetch            0      0.00%    100.00% # Type of FU issued
system.switch_cpus.iq.FU_type_0::total      849305666                       # Type of FU issued
system.switch_cpus.iq.rate                   2.297136                       # Inst issue rate
system.switch_cpus.iq.fu_busy_cnt            10732965                       # FU busy when requested
system.switch_cpus.iq.fu_busy_rate           0.012637                       # FU busy rate (busy events/executed inst)
system.switch_cpus.iq.int_inst_queue_reads   1520410729                       # Number of integer instruction queue reads
system.switch_cpus.iq.int_inst_queue_writes    588345086                       # Number of integer instruction queue writes
system.switch_cpus.iq.int_inst_queue_wakeup_accesses    586990172                       # Number of integer instruction queue wakeup accesses
system.switch_cpus.iq.fp_inst_queue_reads    526680970                       # Number of floating instruction queue reads
system.switch_cpus.iq.fp_inst_queue_writes    262332438                       # Number of floating instruction queue writes
system.switch_cpus.iq.fp_inst_queue_wakeup_accesses    262222810                       # Number of floating instruction queue wakeup accesses
system.switch_cpus.iq.int_alu_accesses      595589070                       # Number of integer alu accesses
system.switch_cpus.iq.fp_alu_accesses       264449168                       # Number of floating point alu accesses
system.switch_cpus.iew.lsq.thread0.forwLoads     32696211                       # Number of loads that had data forwarded from stores
system.switch_cpus.iew.lsq.thread0.invAddrLoads            0                       # Number of loads ignored due to an invalid address
system.switch_cpus.iew.lsq.thread0.squashedLoads       306730                       # Number of loads squashed
system.switch_cpus.iew.lsq.thread0.ignoredResponses          713                       # Number of memory responses ignored because the instruction is squashed
system.switch_cpus.iew.lsq.thread0.memOrderViolation        12221                       # Number of memory ordering violations
system.switch_cpus.iew.lsq.thread0.squashedStores        93878                       # Number of stores squashed
system.switch_cpus.iew.lsq.thread0.invAddrSwpfs            0                       # Number of software prefetches ignored due to an invalid address
system.switch_cpus.iew.lsq.thread0.blockedLoads            0                       # Number of blocked loads due to partial load-store forwarding
system.switch_cpus.iew.lsq.thread0.rescheduledLoads           15                       # Number of loads that were rescheduled
system.switch_cpus.iew.lsq.thread0.cacheBlocked          773                       # Number of times an access to memory failed due to the cache being blocked
system.switch_cpus.iew.iewIdleCycles                0                       # Number of cycles IEW is idle
system.switch_cpus.iew.iewSquashCycles         127675                       # Number of cycles IEW is squashing
system.switch_cpus.iew.iewBlockCycles        13365418                       # Number of cycles IEW is blocking
system.switch_cpus.iew.iewUnblockCycles       1043862                       # Number of cycles IEW is unblocking
system.switch_cpus.iew.iewDispatchedInsts    878054075                       # Number of instructions dispatched to IQ
system.switch_cpus.iew.iewDispSquashedInsts         5781                       # Number of squashed instructions skipped by dispatch
system.switch_cpus.iew.iewDispLoadInsts     242357286                       # Number of dispatched load instructions
system.switch_cpus.iew.iewDispStoreInsts     81140792                       # Number of dispatched store instructions
system.switch_cpus.iew.iewDispNonSpecInsts         3732                       # Number of dispatched non-speculative instructions
system.switch_cpus.iew.iewIQFullEvents          37298                       # Number of times the IQ has become full, causing a stall
system.switch_cpus.iew.iewLSQFullEvents         84305                       # Number of times the LSQ has become full, causing a stall
system.switch_cpus.iew.memOrderViolationEvents        12221                       # Number of memory order violations
system.switch_cpus.iew.predictedTakenIncorrect        10159                       # Number of branches that were predicted taken incorrectly
system.switch_cpus.iew.predictedNotTakenIncorrect         4156                       # Number of branches that were predicted not taken incorrectly
system.switch_cpus.iew.branchMispredicts        14315                       # Number of branch mispredicts detected at execute
system.switch_cpus.iew.iewExecutedInsts     849262456                       # Number of executed instructions
system.switch_cpus.iew.iewExecLoadInsts     242282302                       # Number of load instructions executed
system.switch_cpus.iew.iewExecSquashedInsts        43210                       # Number of squashed instructions skipped in execute
system.switch_cpus.iew.exec_swp                     0                       # number of swp insts executed
system.switch_cpus.iew.exec_nop              28337708                       # number of nop insts executed
system.switch_cpus.iew.exec_refs            323374685                       # number of memory reference insts executed
system.switch_cpus.iew.exec_branches         28892148                       # Number of branches executed
system.switch_cpus.iew.exec_stores           81092383                       # Number of stores executed
system.switch_cpus.iew.exec_rate             2.297019                       # Inst execution rate
system.switch_cpus.iew.wb_sent              849235631                       # cumulative count of insts sent to commit
system.switch_cpus.iew.wb_count             849212982                       # cumulative count of insts written-back
system.switch_cpus.iew.wb_producers         723385351                       # num instructions producing a value
system.switch_cpus.iew.wb_consumers         816044735                       # num instructions consuming a value
system.switch_cpus.iew.wb_penalized                 0                       # number of instrctions required to write to 'other' IQ
system.switch_cpus.iew.wb_rate               2.296885                       # insts written-back per cycle
system.switch_cpus.iew.wb_fanout             0.886453                       # average fanout of values written-back
system.switch_cpus.iew.wb_penalized_rate            0                       # fraction of instructions written-back that wrote to 'other' IQ
system.switch_cpus.commit.commitSquashedInsts       876113                       # The number of squashed insts skipped by commit
system.switch_cpus.commit.commitNonSpecStalls         6762                       # The number of times commit has been forced to stall to communicate backwards
system.switch_cpus.commit.branchMispredicts        13316                       # The number of times a branch was mispredicted
system.switch_cpus.commit.committed_per_cycle::samples    337608024                       # Number of insts commited each cycle
system.switch_cpus.commit.committed_per_cycle::mean     2.597956                       # Number of insts commited each cycle
system.switch_cpus.commit.committed_per_cycle::stdev     3.281825                       # Number of insts commited each cycle
system.switch_cpus.commit.committed_per_cycle::underflows            0      0.00%      0.00% # Number of insts commited each cycle
system.switch_cpus.commit.committed_per_cycle::0    132301645     39.19%     39.19% # Number of insts commited each cycle
system.switch_cpus.commit.committed_per_cycle::1     87693485     25.97%     65.16% # Number of insts commited each cycle
system.switch_cpus.commit.committed_per_cycle::2     11706749      3.47%     68.63% # Number of insts commited each cycle
system.switch_cpus.commit.committed_per_cycle::3      5934765      1.76%     70.39% # Number of insts commited each cycle
system.switch_cpus.commit.committed_per_cycle::4      5696365      1.69%     72.08% # Number of insts commited each cycle
system.switch_cpus.commit.committed_per_cycle::5      3772630      1.12%     73.19% # Number of insts commited each cycle
system.switch_cpus.commit.committed_per_cycle::6      5793617      1.72%     74.91% # Number of insts commited each cycle
system.switch_cpus.commit.committed_per_cycle::7      5900920      1.75%     76.66% # Number of insts commited each cycle
system.switch_cpus.commit.committed_per_cycle::8     78807848     23.34%    100.00% # Number of insts commited each cycle
system.switch_cpus.commit.committed_per_cycle::overflows            0      0.00%    100.00% # Number of insts commited each cycle
system.switch_cpus.commit.committed_per_cycle::min_value            0                       # Number of insts commited each cycle
system.switch_cpus.commit.committed_per_cycle::max_value            8                       # Number of insts commited each cycle
system.switch_cpus.commit.committed_per_cycle::total    337608024                       # Number of insts commited each cycle
system.switch_cpus.commit.committedInsts    877090814                       # Number of instructions committed
system.switch_cpus.commit.committedOps      877090814                       # Number of ops (including micro ops) committed
system.switch_cpus.commit.swp_count                 0                       # Number of s/w prefetches committed
system.switch_cpus.commit.refs              323097470                       # Number of memory references committed
system.switch_cpus.commit.loads             242050556                       # Number of loads committed
system.switch_cpus.commit.membars                3127                       # Number of memory barriers committed
system.switch_cpus.commit.branches           28869639                       # Number of branches committed
system.switch_cpus.commit.fp_insts          262150420                       # Number of committed floating point instructions.
system.switch_cpus.commit.int_insts         689356941                       # Number of committed integer instructions.
system.switch_cpus.commit.function_calls      9447851                       # Number of function calls committed.
system.switch_cpus.commit.bw_lim_events      78807848                       # number cycles where commit BW limit reached
system.switch_cpus.commit.bw_limited                0                       # number of insts not committed due to BW limits
system.switch_cpus.rob.rob_reads           1136713023                       # The number of ROB reads
system.switch_cpus.rob.rob_writes          1756061850                       # The number of ROB writes
system.switch_cpus.timesIdled                  489541                       # Number of times that the entire CPU went into an idle state and unscheduled itself
system.switch_cpus.idleCycles                31988044                       # Total number of cycles that the CPU has spent unscheduled due to idling
system.switch_cpus.committedInsts           848757582                       # Number of Instructions Simulated
system.switch_cpus.committedOps             848757582                       # Number of Ops (including micro ops) Simulated
system.switch_cpus.committedInsts_total     848757582                       # Number of Instructions Simulated
system.switch_cpus.cpi                       0.435606                       # CPI: Cycles Per Instruction
system.switch_cpus.cpi_total                 0.435606                       # CPI: Total CPI of All Threads
system.switch_cpus.ipc                       2.295653                       # IPC: Instructions Per Cycle
system.switch_cpus.ipc_total                 2.295653                       # IPC: Total IPC of All Threads
system.switch_cpus.int_regfile_reads        949653217                       # number of integer regfile reads
system.switch_cpus.int_regfile_writes       502208388                       # number of integer regfile writes
system.switch_cpus.fp_regfile_reads         277934501                       # number of floating regfile reads
system.switch_cpus.fp_regfile_writes        246488362                       # number of floating regfile writes
system.switch_cpus.misc_regfile_reads         8396474                       # number of misc regfile reads
system.switch_cpus.misc_regfile_writes           6255                       # number of misc regfile writes
system.l2.tags.replacements                    485092                       # number of replacements
system.l2.tags.tagsinuse                  7984.761032                       # Cycle average of tags in use
system.l2.tags.total_refs                      215182                       # Total number of references to valid blocks.
system.l2.tags.sampled_refs                    493260                       # Sample count of references to valid blocks.
system.l2.tags.avg_refs                      0.436245                       # Average number of references to valid blocks.
system.l2.tags.warmup_cycle                         0                       # Cycle when the warmup percentage was hit.
system.l2.tags.occ_blocks::writebacks     5528.737111                       # Average occupied blocks per requestor
system.l2.tags.occ_blocks::switch_cpus.inst     7.510065                       # Average occupied blocks per requestor
system.l2.tags.occ_blocks::switch_cpus.data  2447.519238                       # Average occupied blocks per requestor
system.l2.tags.occ_blocks::cpu.inst          0.789876                       # Average occupied blocks per requestor
system.l2.tags.occ_blocks::cpu.data          0.204741                       # Average occupied blocks per requestor
system.l2.tags.occ_percent::writebacks       0.674895                       # Average percentage of cache occupancy
system.l2.tags.occ_percent::switch_cpus.inst     0.000917                       # Average percentage of cache occupancy
system.l2.tags.occ_percent::switch_cpus.data     0.298769                       # Average percentage of cache occupancy
system.l2.tags.occ_percent::cpu.inst         0.000096                       # Average percentage of cache occupancy
system.l2.tags.occ_percent::cpu.data         0.000025                       # Average percentage of cache occupancy
system.l2.tags.occ_percent::total            0.974702                       # Average percentage of cache occupancy
system.l2.ReadReq_hits::switch_cpus.inst           74                       # number of ReadReq hits
system.l2.ReadReq_hits::switch_cpus.data       130621                       # number of ReadReq hits
system.l2.ReadReq_hits::total                  130695                       # number of ReadReq hits
system.l2.Writeback_hits::writebacks           330479                       # number of Writeback hits
system.l2.Writeback_hits::total                330479                       # number of Writeback hits
system.l2.ReadExReq_hits::switch_cpus.data        52560                       # number of ReadExReq hits
system.l2.ReadExReq_hits::total                 52560                       # number of ReadExReq hits
system.l2.demand_hits::switch_cpus.inst            74                       # number of demand (read+write) hits
system.l2.demand_hits::switch_cpus.data        183181                       # number of demand (read+write) hits
system.l2.demand_hits::total                   183255                       # number of demand (read+write) hits
system.l2.overall_hits::switch_cpus.inst           74                       # number of overall hits
system.l2.overall_hits::switch_cpus.data       183181                       # number of overall hits
system.l2.overall_hits::total                  183255                       # number of overall hits
system.l2.ReadReq_misses::switch_cpus.inst          976                       # number of ReadReq misses
system.l2.ReadReq_misses::switch_cpus.data       246037                       # number of ReadReq misses
system.l2.ReadReq_misses::total                247013                       # number of ReadReq misses
system.l2.ReadExReq_misses::switch_cpus.data       245987                       # number of ReadExReq misses
system.l2.ReadExReq_misses::total              245987                       # number of ReadExReq misses
system.l2.demand_misses::switch_cpus.inst          976                       # number of demand (read+write) misses
system.l2.demand_misses::switch_cpus.data       492024                       # number of demand (read+write) misses
system.l2.demand_misses::total                 493000                       # number of demand (read+write) misses
system.l2.overall_misses::switch_cpus.inst          976                       # number of overall misses
system.l2.overall_misses::switch_cpus.data       492024                       # number of overall misses
system.l2.overall_misses::total                493000                       # number of overall misses
system.l2.ReadReq_miss_latency::switch_cpus.inst     65839750                       # number of ReadReq miss cycles
system.l2.ReadReq_miss_latency::switch_cpus.data  15043171250                       # number of ReadReq miss cycles
system.l2.ReadReq_miss_latency::total     15109011000                       # number of ReadReq miss cycles
system.l2.ReadExReq_miss_latency::switch_cpus.data  15342691250                       # number of ReadExReq miss cycles
system.l2.ReadExReq_miss_latency::total   15342691250                       # number of ReadExReq miss cycles
system.l2.demand_miss_latency::switch_cpus.inst     65839750                       # number of demand (read+write) miss cycles
system.l2.demand_miss_latency::switch_cpus.data  30385862500                       # number of demand (read+write) miss cycles
system.l2.demand_miss_latency::total      30451702250                       # number of demand (read+write) miss cycles
system.l2.overall_miss_latency::switch_cpus.inst     65839750                       # number of overall miss cycles
system.l2.overall_miss_latency::switch_cpus.data  30385862500                       # number of overall miss cycles
system.l2.overall_miss_latency::total     30451702250                       # number of overall miss cycles
system.l2.ReadReq_accesses::switch_cpus.inst         1050                       # number of ReadReq accesses(hits+misses)
system.l2.ReadReq_accesses::switch_cpus.data       376658                       # number of ReadReq accesses(hits+misses)
system.l2.ReadReq_accesses::total              377708                       # number of ReadReq accesses(hits+misses)
system.l2.Writeback_accesses::writebacks       330479                       # number of Writeback accesses(hits+misses)
system.l2.Writeback_accesses::total            330479                       # number of Writeback accesses(hits+misses)
system.l2.ReadExReq_accesses::switch_cpus.data       298547                       # number of ReadExReq accesses(hits+misses)
system.l2.ReadExReq_accesses::total            298547                       # number of ReadExReq accesses(hits+misses)
system.l2.demand_accesses::switch_cpus.inst         1050                       # number of demand (read+write) accesses
[...]
system.cpu.icache.overall_mshr_hits::total          406                       # number of overall MSHR hits
system.cpu.icache.ReadReq_mshr_misses::switch_cpus.inst         1050                       # number of ReadReq MSHR misses
system.cpu.icache.ReadReq_mshr_misses::total         1050                       # number of ReadReq MSHR misses
system.cpu.icache.demand_mshr_misses::switch_cpus.inst         1050                       # number of demand (read+write) MSHR misses
system.cpu.icache.demand_mshr_misses::total         1050                       # number of demand (read+write) MSHR misses
system.cpu.icache.overall_mshr_misses::switch_cpus.inst         1050                       # number of overall MSHR misses
system.cpu.icache.overall_mshr_misses::total         1050                       # number of overall MSHR misses
system.cpu.icache.ReadReq_mshr_miss_latency::switch_cpus.inst     67640750                       # number of ReadReq MSHR miss cycles
system.cpu.icache.ReadReq_mshr_miss_latency::total     67640750                       # number of ReadReq MSHR miss cycles
system.cpu.icache.demand_mshr_miss_latency::switch_cpus.inst     67640750                       # number of demand (read+write) MSHR miss cycles
system.cpu.icache.demand_mshr_miss_latency::total     67640750                       # number of demand (read+write) MSHR miss cycles
system.cpu.icache.overall_mshr_miss_latency::switch_cpus.inst     67640750                       # number of overall MSHR miss cycles
system.cpu.icache.overall_mshr_miss_latency::total     67640750                       # number of overall MSHR miss cycles
system.cpu.icache.ReadReq_mshr_miss_rate::switch_cpus.inst     0.000014                       # mshr miss rate for ReadReq accesses
system.cpu.icache.ReadReq_mshr_miss_rate::total     0.000014                       # mshr miss rate for ReadReq accesses
system.cpu.icache.demand_mshr_miss_rate::switch_cpus.inst     0.000014                       # mshr miss rate for demand accesses
system.cpu.icache.demand_mshr_miss_rate::total     0.000014                       # mshr miss rate for demand accesses
system.cpu.icache.overall_mshr_miss_rate::switch_cpus.inst     0.000014                       # mshr miss rate for overall accesses
system.cpu.icache.overall_mshr_miss_rate::total     0.000014                       # mshr miss rate for overall accesses
system.cpu.icache.ReadReq_avg_mshr_miss_latency::switch_cpus.inst 64419.761905                       # average ReadReq mshr miss latency
system.cpu.icache.ReadReq_avg_mshr_miss_latency::total 64419.761905                       # average ReadReq mshr miss latency
system.cpu.icache.demand_avg_mshr_miss_latency::switch_cpus.inst 64419.761905                       # average overall mshr miss latency
system.cpu.icache.demand_avg_mshr_miss_latency::total 64419.761905                       # average overall mshr miss latency
system.cpu.icache.overall_avg_mshr_miss_latency::switch_cpus.inst 64419.761905                       # average overall mshr miss latency
system.cpu.icache.overall_avg_mshr_miss_latency::total 64419.761905                       # average overall mshr miss latency
system.cpu.icache.no_allocate_misses                0                       # Number of misses that were no-allocate
system.cpu.dcache.tags.replacements            674782                       # number of replacements
system.cpu.dcache.tags.tagsinuse           500.853754                       # Cycle average of tags in use
system.cpu.dcache.tags.total_refs           288277920                       # Total number of references to valid blocks.
system.cpu.dcache.tags.sampled_refs            675283                       # Sample count of references to valid blocks.
system.cpu.dcache.tags.avg_refs            426.899418                       # Average number of references to valid blocks.
system.cpu.dcache.tags.warmup_cycle                 0                       # Cycle when the warmup percentage was hit.
system.cpu.dcache.tags.occ_blocks::switch_cpus.data   500.837524                       # Average occupied blocks per requestor
system.cpu.dcache.tags.occ_blocks::cpu.data     0.016230                       # Average occupied blocks per requestor
system.cpu.dcache.tags.occ_percent::switch_cpus.data     0.978198                       # Average percentage of cache occupancy
system.cpu.dcache.tags.occ_percent::cpu.data     0.000032                       # Average percentage of cache occupancy
system.cpu.dcache.tags.occ_percent::total     0.978230                       # Average percentage of cache occupancy
system.cpu.dcache.ReadReq_hits::switch_cpus.data    208280347                       # number of ReadReq hits
system.cpu.dcache.ReadReq_hits::total       208280347                       # number of ReadReq hits
system.cpu.dcache.WriteReq_hits::switch_cpus.data     79992360                       # number of WriteReq hits
system.cpu.dcache.WriteReq_hits::total       79992360                       # number of WriteReq hits
system.cpu.dcache.LoadLockedReq_hits::switch_cpus.data         1585                       # number of LoadLockedReq hits
system.cpu.dcache.LoadLockedReq_hits::total         1585                       # number of LoadLockedReq hits
system.cpu.dcache.StoreCondReq_hits::switch_cpus.data         3127                       # number of StoreCondReq hits
system.cpu.dcache.StoreCondReq_hits::total         3127                       # number of StoreCondReq hits
system.cpu.dcache.demand_hits::switch_cpus.data    288272707                       # number of demand (read+write) hits
system.cpu.dcache.demand_hits::total        288272707                       # number of demand (read+write) hits
system.cpu.dcache.overall_hits::switch_cpus.data    288272707                       # number of overall hits
system.cpu.dcache.overall_hits::total       288272707                       # number of overall hits
system.cpu.dcache.ReadReq_misses::switch_cpus.data      1297320                       # number of ReadReq misses
system.cpu.dcache.ReadReq_misses::total       1297320                       # number of ReadReq misses
system.cpu.dcache.WriteReq_misses::switch_cpus.data      1051427                       # number of WriteReq misses
system.cpu.dcache.WriteReq_misses::total      1051427                       # number of WriteReq misses
system.cpu.dcache.LoadLockedReq_misses::switch_cpus.data         1542                       # number of LoadLockedReq misses
system.cpu.dcache.LoadLockedReq_misses::total         1542                       # number of LoadLockedReq misses
system.cpu.dcache.demand_misses::switch_cpus.data      2348747                       # number of demand (read+write) misses
system.cpu.dcache.demand_misses::total        2348747                       # number of demand (read+write) misses
system.cpu.dcache.overall_misses::switch_cpus.data      2348747                       # number of overall misses
system.cpu.dcache.overall_misses::total       2348747                       # number of overall misses
system.cpu.dcache.ReadReq_miss_latency::switch_cpus.data  57096996500                       # number of ReadReq miss cycles
system.cpu.dcache.ReadReq_miss_latency::total  57096996500                       # number of ReadReq miss cycles
system.cpu.dcache.WriteReq_miss_latency::switch_cpus.data  47094434730                       # number of WriteReq miss cycles
system.cpu.dcache.WriteReq_miss_latency::total  47094434730                       # number of WriteReq miss cycles
system.cpu.dcache.LoadLockedReq_miss_latency::switch_cpus.data     21286250                       # number of LoadLockedReq miss cycles
system.cpu.dcache.LoadLockedReq_miss_latency::total     21286250                       # number of LoadLockedReq miss cycles
system.cpu.dcache.demand_miss_latency::switch_cpus.data 104191431230                       # number of demand (read+write) miss cycles
system.cpu.dcache.demand_miss_latency::total 104191431230                       # number of demand (read+write) miss cycles
system.cpu.dcache.overall_miss_latency::switch_cpus.data 104191431230                       # number of overall miss cycles
system.cpu.dcache.overall_miss_latency::total 104191431230                       # number of overall miss cycles
system.cpu.dcache.ReadReq_accesses::switch_cpus.data    209577667                       # number of ReadReq accesses(hits+misses)
system.cpu.dcache.ReadReq_accesses::total    209577667                       # number of ReadReq accesses(hits+misses)
system.cpu.dcache.WriteReq_accesses::switch_cpus.data     81043787                       # number of WriteReq accesses(hits+misses)
system.cpu.dcache.WriteReq_accesses::total     81043787                       # number of WriteReq accesses(hits+misses)
system.cpu.dcache.LoadLockedReq_accesses::switch_cpus.data         3127                       # number of LoadLockedReq accesses(hits+misses)
system.cpu.dcache.LoadLockedReq_accesses::total         3127                       # number of LoadLockedReq accesses(hits+misses)
system.cpu.dcache.StoreCondReq_accesses::switch_cpus.data         3127                       # number of StoreCondReq accesses(hits+misses)
system.cpu.dcache.StoreCondReq_accesses::total         3127                       # number of StoreCondReq accesses(hits+misses)
system.cpu.dcache.demand_accesses::switch_cpus.data    290621454                       # number of demand (read+write) accesses
system.cpu.dcache.demand_accesses::total    290621454                       # number of demand (read+write) accesses
system.cpu.dcache.overall_accesses::switch_cpus.data    290621454                       # number of overall (read+write) accesses
system.cpu.dcache.overall_accesses::total    290621454                       # number of overall (read+write) accesses
system.cpu.dcache.ReadReq_miss_rate::switch_cpus.data     0.006190                       # miss rate for ReadReq accesses
system.cpu.dcache.ReadReq_miss_rate::total     0.006190                       # miss rate for ReadReq accesses
system.cpu.dcache.WriteReq_miss_rate::switch_cpus.data     0.012974                       # miss rate for WriteReq accesses
system.cpu.dcache.WriteReq_miss_rate::total     0.012974                       # miss rate for WriteReq accesses
system.cpu.dcache.LoadLockedReq_miss_rate::switch_cpus.data     0.493124                       # miss rate for LoadLockedReq accesses
system.cpu.dcache.LoadLockedReq_miss_rate::total     0.493124                       # miss rate for LoadLockedReq accesses
system.cpu.dcache.demand_miss_rate::switch_cpus.data     0.008082                       # miss rate for demand accesses
system.cpu.dcache.demand_miss_rate::total     0.008082                       # miss rate for demand accesses
system.cpu.dcache.overall_miss_rate::switch_cpus.data     0.008082                       # miss rate for overall accesses
system.cpu.dcache.overall_miss_rate::total     0.008082                       # miss rate for overall accesses
system.cpu.dcache.ReadReq_avg_miss_latency::switch_cpus.data 44011.497934                       # average ReadReq miss latency
system.cpu.dcache.ReadReq_avg_miss_latency::total 44011.497934                       # average ReadReq miss latency
system.cpu.dcache.WriteReq_avg_miss_latency::switch_cpus.data 44790.969539                       # average WriteReq miss latency
system.cpu.dcache.WriteReq_avg_miss_latency::total 44790.969539                       # average WriteReq miss latency
system.cpu.dcache.LoadLockedReq_avg_miss_latency::switch_cpus.data 13804.312581                       # average LoadLockedReq miss latency
system.cpu.dcache.LoadLockedReq_avg_miss_latency::total 13804.312581                       # average LoadLockedReq miss latency
system.cpu.dcache.demand_avg_miss_latency::switch_cpus.data 44360.431852                       # average overall miss latency
system.cpu.dcache.demand_avg_miss_latency::total 44360.431852                       # average overall miss latency
system.cpu.dcache.overall_avg_miss_latency::switch_cpus.data 44360.431852                       # average overall miss latency
system.cpu.dcache.overall_avg_miss_latency::total 44360.431852                       # average overall miss latency
system.cpu.dcache.blocked_cycles::no_mshrs         5902                       # number of cycles access was blocked
system.cpu.dcache.blocked_cycles::no_targets            0                       # number of cycles access was blocked
system.cpu.dcache.blocked::no_mshrs               188                       # number of cycles access was blocked
system.cpu.dcache.blocked::no_targets               0                       # number of cycles access was blocked
system.cpu.dcache.avg_blocked_cycles::no_mshrs    31.393617                       # average number of cycles each access was blocked
system.cpu.dcache.avg_blocked_cycles::no_targets          nan                       # average number of cycles each access was blocked
system.cpu.dcache.fast_writes                       0                       # number of fast writes performed
system.cpu.dcache.cache_copies                      0                       # number of cache copies performed
system.cpu.dcache.writebacks::writebacks       330479                       # number of writebacks
system.cpu.dcache.writebacks::total            330479                       # number of writebacks
system.cpu.dcache.ReadReq_mshr_hits::switch_cpus.data       920663                       # number of ReadReq MSHR hits
system.cpu.dcache.ReadReq_mshr_hits::total       920663                       # number of ReadReq MSHR hits
system.cpu.dcache.WriteReq_mshr_hits::switch_cpus.data       752880                       # number of WriteReq MSHR hits
system.cpu.dcache.WriteReq_mshr_hits::total       752880                       # number of WriteReq MSHR hits
system.cpu.dcache.LoadLockedReq_mshr_hits::switch_cpus.data         1541                       # number of LoadLockedReq MSHR hits
system.cpu.dcache.LoadLockedReq_mshr_hits::total         1541                       # number of LoadLockedReq MSHR hits
system.cpu.dcache.demand_mshr_hits::switch_cpus.data      1673543                       # number of demand (read+write) MSHR hits
system.cpu.dcache.demand_mshr_hits::total      1673543                       # number of demand (read+write) MSHR hits
system.cpu.dcache.overall_mshr_hits::switch_cpus.data      1673543                       # number of overall MSHR hits
system.cpu.dcache.overall_mshr_hits::total      1673543                       # number of overall MSHR hits
system.cpu.dcache.ReadReq_mshr_misses::switch_cpus.data       376657                       # number of ReadReq MSHR misses
system.cpu.dcache.ReadReq_mshr_misses::total       376657                       # number of ReadReq MSHR misses
system.cpu.dcache.WriteReq_mshr_misses::switch_cpus.data       298547                       # number of WriteReq MSHR misses
system.cpu.dcache.WriteReq_mshr_misses::total       298547                       # number of WriteReq MSHR misses
system.cpu.dcache.LoadLockedReq_mshr_misses::switch_cpus.data            1                       # number of LoadLockedReq MSHR misses
system.cpu.dcache.LoadLockedReq_mshr_misses::total            1                       # number of LoadLockedReq MSHR misses
system.cpu.dcache.demand_mshr_misses::switch_cpus.data       675204                       # number of demand (read+write) MSHR misses
system.cpu.dcache.demand_mshr_misses::total       675204                       # number of demand (read+write) MSHR misses
system.cpu.dcache.overall_mshr_misses::switch_cpus.data       675204                       # number of overall MSHR misses
system.cpu.dcache.overall_mshr_misses::total       675204                       # number of overall MSHR misses
system.cpu.dcache.ReadReq_mshr_miss_latency::switch_cpus.data  16730939500                       # number of ReadReq MSHR miss cycles
system.cpu.dcache.ReadReq_mshr_miss_latency::total  16730939500                       # number of ReadReq MSHR miss cycles
system.cpu.dcache.WriteReq_mshr_miss_latency::switch_cpus.data  16172113749                       # number of WriteReq MSHR miss cycles
system.cpu.dcache.WriteReq_mshr_miss_latency::total  16172113749                       # number of WriteReq MSHR miss cycles
system.cpu.dcache.LoadLockedReq_mshr_miss_latency::switch_cpus.data       195250                       # number of LoadLockedReq MSHR miss cycles
system.cpu.dcache.LoadLockedReq_mshr_miss_latency::total       195250                       # number of LoadLockedReq MSHR miss cycles
system.cpu.dcache.demand_mshr_miss_latency::switch_cpus.data  32903053249                       # number of demand (read+write) MSHR miss cycles
system.cpu.dcache.demand_mshr_miss_latency::total  32903053249                       # number of demand (read+write) MSHR miss cycles
system.cpu.dcache.overall_mshr_miss_latency::switch_cpus.data  32903053249                       # number of overall MSHR miss cycles
system.cpu.dcache.overall_mshr_miss_latency::total  32903053249                       # number of overall MSHR miss cycles
system.cpu.dcache.ReadReq_mshr_miss_rate::switch_cpus.data     0.001797                       # mshr miss rate for ReadReq accesses
system.cpu.dcache.ReadReq_mshr_miss_rate::total     0.001797                       # mshr miss rate for ReadReq accesses
system.cpu.dcache.WriteReq_mshr_miss_rate::switch_cpus.data     0.003684                       # mshr miss rate for WriteReq accesses
system.cpu.dcache.WriteReq_mshr_miss_rate::total     0.003684                       # mshr miss rate for WriteReq accesses
system.cpu.dcache.LoadLockedReq_mshr_miss_rate::switch_cpus.data     0.000320                       # mshr miss rate for LoadLockedReq accesses
system.cpu.dcache.LoadLockedReq_mshr_miss_rate::total     0.000320                       # mshr miss rate for LoadLockedReq accesses
system.cpu.dcache.demand_mshr_miss_rate::switch_cpus.data     0.002323                       # mshr miss rate for demand accesses
system.cpu.dcache.demand_mshr_miss_rate::total     0.002323                       # mshr miss rate for demand accesses
system.cpu.dcache.overall_mshr_miss_rate::switch_cpus.data     0.002323                       # mshr miss rate for overall accesses
system.cpu.dcache.overall_mshr_miss_rate::total     0.002323                       # mshr miss rate for overall accesses
system.cpu.dcache.ReadReq_avg_mshr_miss_latency::switch_cpus.data 44419.563422                       # average ReadReq mshr miss latency
system.cpu.dcache.ReadReq_avg_mshr_miss_latency::total 44419.563422                       # average ReadReq mshr miss latency
system.cpu.dcache.WriteReq_avg_mshr_miss_latency::switch_cpus.data 54169.406321                       # average WriteReq mshr miss latency
system.cpu.dcache.WriteReq_avg_mshr_miss_latency::total 54169.406321                       # average WriteReq mshr miss latency
system.cpu.dcache.LoadLockedReq_avg_mshr_miss_latency::switch_cpus.data       195250                       # average LoadLockedReq mshr miss latency
system.cpu.dcache.LoadLockedReq_avg_mshr_miss_latency::total       195250                       # average LoadLockedReq mshr miss latency
system.cpu.dcache.demand_avg_mshr_miss_latency::switch_cpus.data 48730.536622                       # average overall mshr miss latency
system.cpu.dcache.demand_avg_mshr_miss_latency::total 48730.536622                       # average overall mshr miss latency
system.cpu.dcache.overall_avg_mshr_miss_latency::switch_cpus.data 48730.536622                       # average overall mshr miss latency
system.cpu.dcache.overall_avg_mshr_miss_latency::total 48730.536622                       # average overall mshr miss latency
system.cpu.dcache.no_allocate_misses                0                       # Number of misses that were no-allocate

---------- End Simulation Statistics   ----------
