Redirecting stdout to /home/majid/gem5/gem5-relax/tests/test-progs/scale/runs/sailboat-480-2-relaxed-1/sailboat-480-2-relaxed-1.out
Redirecting stderr to /home/majid/gem5/gem5-relax/tests/test-progs/scale/runs/sailboat-480-2-relaxed-1/sailboat-480-2-relaxed-1.err
gem5 Simulator System.  http://gem5.org
gem5 is copyrighted software; use the --copyright option for details.

gem5 compiled Apr 21 2014 11:01:47
gem5 started Apr 24 2014 18:28:49
gem5 executing on drg.ics.uci.edu
command line: /home/majid/gem5/gem5-relax/build/ALPHA/gem5.opt --redirect-stdout --redirect-stderr --stdout-file=/home/majid/gem5/gem5-relax/tests/test-progs/scale/runs/sailboat-480-2-relaxed-1/sailboat-480-2-relaxed-1.out --stderr-file=/home/majid/gem5/gem5-relax/tests/test-progs/scale/runs/sailboat-480-2-relaxed-1/sailboat-480-2-relaxed-1.err --outdir=/home/majid/gem5/gem5-relax/tests/test-progs/scale/runs/sailboat-480-2-relaxed-1 --debug-flags=PseudoInst /home/majid/gem5/gem5-relax/configs/example/se_relax_cache.py --cpu-type=detailed --num-cpus=1 --sys-clock=2GHz --cpu-clock=2GHz --mem-type=ddr3_1600_x64 --mem-size=512MB --caches --l2cache --num-l2caches=1 --num-l3caches=0 --l1d_size=32kB --l1i_size=32kB --l2_size=512kB --l1d_assoc=4 --l1i_assoc=4 --l2_assoc=8 --cacheline_size=64 --fast-forward=3390 --maxinsts=100000000000000 --at-instruction --replacement_policy=random --l1_voltage_parameter_file=/home/majid/gem5/gem5-relax/ber_info/gem5params-L1-A.csv --l2_voltage_parameter_file=/home/majid/gem5/gem5-relax/ber_info/gem5params-L2-A.csv --vdd3_l1=480 --vdd2_l1=1000 --vdd1_l1=1000 --vdd3_l2=1000 --vdd2_l2=1000 --vdd1_l2=1000 --init_afb_l1=2 --init_afb_l2=0 --clean_ways_l1=1 --clean_ways_l2=8 -c /home/majid/gem5/gem5-relax/tests/test-progs/scale/bin/alpha/scale -o 2 /home/majid/gem5/gem5-relax/tests/test-progs/scale/inputs/sailboat.ppm /home/majid/gem5/gem5-relax/tests/test-progs/scale/outputs/sailboat-X2-480-2-relaxed-1.ppm
Global frequency set at 1000000000000 ticks per second
info: Reading this cache's voltage parameter file...
info: Reading this cache's voltage parameter file...
info: Reading this cache's voltage parameter file...
info: Generating fault maps for this cache
info: Fault map generated
info: Dumping cache fault map for VDDs [480 mV, 1000 mV, 1000 mV]...
info: Block# = 0 ==>  0, 0, 0
info: Block# = 1 ==>  2, 0, 0
info: Block# = 2 ==>  0, 0, 0
info: Block# = 3 ==>  0, 0, 0
info: Block# = 4 ==>  0, 0, 0
info: Block# = 5 ==>  3, 0, 0
info: Block# = 6 ==>  2, 0, 0
info: Block# = 7 ==>  3, 0, 0
info: Block# = 8 ==>  0, 0, 0
info: Block# = 9 ==>  1, 0, 0
info: Block# = 10 ==>  3, 0, 0
info: Block# = 11 ==>  0, 0, 0
info: Block# = 12 ==>  0, 0, 0
info: Block# = 13 ==>  2, 0, 0
info: Block# = 14 ==>  3, 0, 0
info: Block# = 15 ==>  4, 0, 0
info: Block# = 16 ==>  0, 0, 0
info: Block# = 17 ==>  2, 0, 0
info: Block# = 18 ==>  2, 0, 0
info: Block# = 19 ==>  3, 0, 0
info: Block# = 20 ==>  0, 0, 0
info: Block# = 21 ==>  2, 0, 0
info: Block# = 22 ==>  2, 0, 0
info: Block# = 23 ==>  1, 0, 0
info: Block# = 24 ==>  0, 0, 0
info: Block# = 25 ==>  0, 0, 0
info: Block# = 26 ==>  2, 0, 0
info: Block# = 27 ==>  2, 0, 0
info: Block# = 28 ==>  0, 0, 0
info: Block# = 29 ==>  3, 0, 0
info: Block# = 30 ==>  2, 0, 0
info: Block# = 31 ==>  0, 0, 0
info: Block# = 32 ==>  0, 0, 0
info: Block# = 33 ==>  4, 0, 0
info: Block# = 34 ==>  2, 0, 0
info: Block# = 35 ==>  0, 0, 0
info: Block# = 36 ==>  0, 0, 0
info: Block# = 37 ==>  1, 0, 0
info: Block# = 38 ==>  0, 0, 0
info: Block# = 39 ==>  1, 0, 0
info: Block# = 40 ==>  0, 0, 0
info: Block# = 41 ==>  1, 0, 0
info: Block# = 42 ==>  1, 0, 0
info: Block# = 43 ==>  0, 0, 0
info: Block# = 44 ==>  0, 0, 0
info: Block# = 45 ==>  3, 0, 0
info: Block# = 46 ==>  1, 0, 0
info: Block# = 47 ==>  1, 0, 0
info: Block# = 48 ==>  0, 0, 0
info: Block# = 49 ==>  3, 0, 0
info: Block# = 50 ==>  1, 0, 0
info: Block# = 51 ==>  2, 0, 0
info: Block# = 52 ==>  0, 0, 0
info: Block# = 53 ==>  1, 0, 0
info: Block# = 54 ==>  1, 0, 0
info: Block# = 55 ==>  2, 0, 0
info: Block# = 56 ==>  0, 0, 0
info: Block# = 57 ==>  5, 0, 0
info: Block# = 58 ==>  1, 0, 0
info: Block# = 59 ==>  0, 0, 0
info: Block# = 60 ==>  0, 0, 0
info: Block# = 61 ==>  1, 0, 0
info: Block# = 62 ==>  2, 0, 0
info: Block# = 63 ==>  3, 0, 0
info: Block# = 64 ==>  0, 0, 0
info: Block# = 65 ==>  1, 0, 0
info: Block# = 66 ==>  2, 0, 0
info: Block# = 67 ==>  2, 0, 0
info: Block# = 68 ==>  0, 0, 0
info: Block# = 69 ==>  0, 0, 0
info: Block# = 70 ==>  1, 0, 0
info: Block# = 71 ==>  0, 0, 0
info: Block# = 72 ==>  0, 0, 0
info: Block# = 73 ==>  3, 0, 0
info: Block# = 74 ==>  1, 0, 0
info: Block# = 75 ==>  3, 0, 0
info: Block# = 76 ==>  0, 0, 0
info: Block# = 77 ==>  1, 0, 0
info: Block# = 78 ==>  0, 0, 0
info: Block# = 79 ==>  2, 0, 0
info: Block# = 80 ==>  0, 0, 0
info: Block# = 81 ==>  3, 0, 0
info: Block# = 82 ==>  0, 0, 0
info: Block# = 83 ==>  0, 0, 0
info: Block# = 84 ==>  0, 0, 0
info: Block# = 85 ==>  1, 0, 0
info: Block# = 86 ==>  0, 0, 0
info: Block# = 87 ==>  1, 0, 0
info: Block# = 88 ==>  0, 0, 0
info: Block# = 89 ==>  2, 0, 0
info: Block# = 90 ==>  2, 0, 0
info: Block# = 91 ==>  0, 0, 0
info: Block# = 92 ==>  0, 0, 0
info: Block# = 93 ==>  3, 0, 0
info: Block# = 94 ==>  2, 0, 0
info: Block# = 95 ==>  2, 0, 0
info: Block# = 96 ==>  0, 0, 0
info: Block# = 97 ==>  1, 0, 0
info: Block# = 98 ==>  0, 0, 0
info: Block# = 99 ==>  2, 0, 0
info: Block# = 100 ==>  0, 0, 0
info: Block# = 101 ==>  2, 0, 0
info: Block# = 102 ==>  0, 0, 0
info: Block# = 103 ==>  0, 0, 0
info: Block# = 104 ==>  0, 0, 0
info: Block# = 105 ==>  2, 0, 0
info: Block# = 106 ==>  2, 0, 0
info: Block# = 107 ==>  2, 0, 0
info: Block# = 108 ==>  0, 0, 0
info: Block# = 109 ==>  2, 0, 0
info: Block# = 110 ==>  2, 0, 0
info: Block# = 111 ==>  0, 0, 0
info: Block# = 112 ==>  0, 0, 0
info: Block# = 113 ==>  4, 0, 0
info: Block# = 114 ==>  3, 0, 0
info: Block# = 115 ==>  3, 0, 0
info: Block# = 116 ==>  0, 0, 0
info: Block# = 117 ==>  4, 0, 0
info: Block# = 118 ==>  0, 0, 0
info: Block# = 119 ==>  3, 0, 0
info: Block# = 120 ==>  0, 0, 0
info: Block# = 121 ==>  2, 0, 0
info: Block# = 122 ==>  1, 0, 0
info: Block# = 123 ==>  1, 0, 0
info: Block# = 124 ==>  0, 0, 0
info: Block# = 125 ==>  0, 0, 0
info: Block# = 126 ==>  1, 0, 0
info: Block# = 127 ==>  0, 0, 0
info: Block# = 128 ==>  0, 0, 0
info: Block# = 129 ==>  1, 0, 0
info: Block# = 130 ==>  0, 0, 0
info: Block# = 131 ==>  1, 0, 0
info: Block# = 132 ==>  0, 0, 0
info: Block# = 133 ==>  2, 0, 0
info: Block# = 134 ==>  3, 0, 0
info: Block# = 135 ==>  2, 0, 0
info: Block# = 136 ==>  0, 0, 0
info: Block# = 137 ==>  3, 0, 0
info: Block# = 138 ==>  1, 0, 0
info: Block# = 139 ==>  1, 0, 0
info: Block# = 140 ==>  0, 0, 0
info: Block# = 141 ==>  1, 0, 0
info: Block# = 142 ==>  2, 0, 0
info: Block# = 143 ==>  0, 0, 0
info: Block# = 144 ==>  0, 0, 0
info: Block# = 145 ==>  1, 0, 0
info: Block# = 146 ==>  1, 0, 0
info: Block# = 147 ==>  3, 0, 0
info: Block# = 148 ==>  0, 0, 0
info: Block# = 149 ==>  2, 0, 0
info: Block# = 150 ==>  2, 0, 0
info: Block# = 151 ==>  0, 0, 0
info: Block# = 152 ==>  0, 0, 0
info: Block# = 153 ==>  0, 0, 0
info: Block# = 154 ==>  1, 0, 0
info: Block# = 155 ==>  3, 0, 0
info: Block# = 156 ==>  0, 0, 0
info: Block# = 157 ==>  0, 0, 0
info: Block# = 158 ==>  3, 0, 0
info: Block# = 159 ==>  2, 0, 0
info: Block# = 160 ==>  0, 0, 0
info: Block# = 161 ==>  0, 0, 0
info: Block# = 162 ==>  1, 0, 0
info: Block# = 163 ==>  0, 0, 0
info: Block# = 164 ==>  0, 0, 0
info: Block# = 165 ==>  1, 0, 0
info: Block# = 166 ==>  1, 0, 0
info: Block# = 167 ==>  1, 0, 0
info: Block# = 168 ==>  0, 0, 0
info: Block# = 169 ==>  1, 0, 0
info: Block# = 170 ==>  3, 0, 0
info: Block# = 171 ==>  1, 0, 0
info: Block# = 172 ==>  0, 0, 0
info: Block# = 173 ==>  1, 0, 0
info: Block# = 174 ==>  0, 0, 0
info: Block# = 175 ==>  5, 0, 0
info: Block# = 176 ==>  0, 0, 0
info: Block# = 177 ==>  2, 0, 0
info: Block# = 178 ==>  2, 0, 0
info: Block# = 179 ==>  0, 0, 0
info: Block# = 180 ==>  0, 0, 0
info: Block# = 181 ==>  0, 0, 0
info: Block# = 182 ==>  3, 0, 0
info: Block# = 183 ==>  1, 0, 0
info: Block# = 184 ==>  0, 0, 0
info: Block# = 185 ==>  0, 0, 0
info: Block# = 186 ==>  1, 0, 0
info: Block# = 187 ==>  0, 0, 0
info: Block# = 188 ==>  0, 0, 0
info: Block# = 189 ==>  1, 0, 0
info: Block# = 190 ==>  3, 0, 0
info: Block# = 191 ==>  4, 0, 0
info: Block# = 192 ==>  0, 0, 0
info: Block# = 193 ==>  3, 0, 0
info: Block# = 194 ==>  2, 0, 0
info: Block# = 195 ==>  1, 0, 0
info: Block# = 196 ==>  0, 0, 0
info: Block# = 197 ==>  1, 0, 0
info: Block# = 198 ==>  2, 0, 0
info: Block# = 199 ==>  2, 0, 0
info: Block# = 200 ==>  0, 0, 0
info: Block# = 201 ==>  2, 0, 0
info: Block# = 202 ==>  1, 0, 0
info: Block# = 203 ==>  0, 0, 0
info: Block# = 204 ==>  0, 0, 0
info: Block# = 205 ==>  2, 0, 0
info: Block# = 206 ==>  0, 0, 0
info: Block# = 207 ==>  2, 0, 0
info: Block# = 208 ==>  0, 0, 0
info: Block# = 209 ==>  0, 0, 0
info: Block# = 210 ==>  1, 0, 0
info: Block# = 211 ==>  4, 0, 0
info: Block# = 212 ==>  0, 0, 0
info: Block# = 213 ==>  1, 0, 0
info: Block# = 214 ==>  3, 0, 0
info: Block# = 215 ==>  2, 0, 0
info: Block# = 216 ==>  0, 0, 0
info: Block# = 217 ==>  0, 0, 0
info: Block# = 218 ==>  3, 0, 0
info: Block# = 219 ==>  4, 0, 0
info: Block# = 220 ==>  0, 0, 0
info: Block# = 221 ==>  0, 0, 0
info: Block# = 222 ==>  2, 0, 0
info: Block# = 223 ==>  1, 0, 0
info: Block# = 224 ==>  0, 0, 0
info: Block# = 225 ==>  1, 0, 0
info: Block# = 226 ==>  1, 0, 0
info: Block# = 227 ==>  1, 0, 0
info: Block# = 228 ==>  0, 0, 0
info: Block# = 229 ==>  3, 0, 0
info: Block# = 230 ==>  4, 0, 0
info: Block# = 231 ==>  0, 0, 0
info: Block# = 232 ==>  0, 0, 0
info: Block# = 233 ==>  2, 0, 0
info: Block# = 234 ==>  1, 0, 0
info: Block# = 235 ==>  1, 0, 0
info: Block# = 236 ==>  0, 0, 0
info: Block# = 237 ==>  2, 0, 0
info: Block# = 238 ==>  1, 0, 0
info: Block# = 239 ==>  0, 0, 0
info: Block# = 240 ==>  0, 0, 0
info: Block# = 241 ==>  4, 0, 0
info: Block# = 242 ==>  3, 0, 0
info: Block# = 243 ==>  1, 0, 0
info: Block# = 244 ==>  0, 0, 0
info: Block# = 245 ==>  3, 0, 0
info: Block# = 246 ==>  1, 0, 0
info: Block# = 247 ==>  3, 0, 0
info: Block# = 248 ==>  0, 0, 0
info: Block# = 249 ==>  2, 0, 0
info: Block# = 250 ==>  1, 0, 0
info: Block# = 251 ==>  1, 0, 0
info: Block# = 252 ==>  0, 0, 0
info: Block# = 253 ==>  0, 0, 0
info: Block# = 254 ==>  1, 0, 0
info: Block# = 255 ==>  1, 0, 0
info: Block# = 256 ==>  0, 0, 0
info: Block# = 257 ==>  4, 0, 0
info: Block# = 258 ==>  2, 0, 0
info: Block# = 259 ==>  3, 0, 0
info: Block# = 260 ==>  0, 0, 0
info: Block# = 261 ==>  1, 0, 0
info: Block# = 262 ==>  2, 0, 0
info: Block# = 263 ==>  4, 0, 0
info: Block# = 264 ==>  0, 0, 0
info: Block# = 265 ==>  0, 0, 0
info: Block# = 266 ==>  2, 0, 0
info: Block# = 267 ==>  2, 0, 0
info: Block# = 268 ==>  0, 0, 0
info: Block# = 269 ==>  2, 0, 0
info: Block# = 270 ==>  3, 0, 0
info: Block# = 271 ==>  3, 0, 0
info: Block# = 272 ==>  0, 0, 0
info: Block# = 273 ==>  5, 0, 0
info: Block# = 274 ==>  0, 0, 0
info: Block# = 275 ==>  1, 0, 0
info: Block# = 276 ==>  0, 0, 0
info: Block# = 277 ==>  1, 0, 0
info: Block# = 278 ==>  3, 0, 0
info: Block# = 279 ==>  3, 0, 0
info: Block# = 280 ==>  0, 0, 0
info: Block# = 281 ==>  2, 0, 0
info: Block# = 282 ==>  1, 0, 0
info: Block# = 283 ==>  3, 0, 0
info: Block# = 284 ==>  0, 0, 0
info: Block# = 285 ==>  1, 0, 0
info: Block# = 286 ==>  1, 0, 0
info: Block# = 287 ==>  4, 0, 0
info: Block# = 288 ==>  0, 0, 0
info: Block# = 289 ==>  1, 0, 0
info: Block# = 290 ==>  2, 0, 0
info: Block# = 291 ==>  0, 0, 0
info: Block# = 292 ==>  0, 0, 0
info: Block# = 293 ==>  3, 0, 0
info: Block# = 294 ==>  3, 0, 0
info: Block# = 295 ==>  1, 0, 0
info: Block# = 296 ==>  0, 0, 0
info: Block# = 297 ==>  0, 0, 0
info: Block# = 298 ==>  2, 0, 0
info: Block# = 299 ==>  3, 0, 0
info: Block# = 300 ==>  0, 0, 0
info: Block# = 301 ==>  2, 0, 0
info: Block# = 302 ==>  1, 0, 0
info: Block# = 303 ==>  1, 0, 0
info: Block# = 304 ==>  0, 0, 0
info: Block# = 305 ==>  1, 0, 0
info: Block# = 306 ==>  0, 0, 0
info: Block# = 307 ==>  1, 0, 0
info: Block# = 308 ==>  0, 0, 0
info: Block# = 309 ==>  5, 0, 0
info: Block# = 310 ==>  1, 0, 0
info: Block# = 311 ==>  0, 0, 0
info: Block# = 312 ==>  0, 0, 0
info: Block# = 313 ==>  0, 0, 0
info: Block# = 314 ==>  0, 0, 0
info: Block# = 315 ==>  2, 0, 0
info: Block# = 316 ==>  0, 0, 0
info: Block# = 317 ==>  3, 0, 0
info: Block# = 318 ==>  1, 0, 0
info: Block# = 319 ==>  0, 0, 0
info: Block# = 320 ==>  0, 0, 0
info: Block# = 321 ==>  0, 0, 0
info: Block# = 322 ==>  3, 0, 0
info: Block# = 323 ==>  2, 0, 0
info: Block# = 324 ==>  0, 0, 0
info: Block# = 325 ==>  1, 0, 0
info: Block# = 326 ==>  1, 0, 0
info: Block# = 327 ==>  0, 0, 0
info: Block# = 328 ==>  0, 0, 0
info: Block# = 329 ==>  3, 0, 0
info: Block# = 330 ==>  1, 0, 0
info: Block# = 331 ==>  0, 0, 0
info: Block# = 332 ==>  0, 0, 0
info: Block# = 333 ==>  1, 0, 0
info: Block# = 334 ==>  1, 0, 0
info: Block# = 335 ==>  3, 0, 0
info: Block# = 336 ==>  0, 0, 0
info: Block# = 337 ==>  1, 0, 0
info: Block# = 338 ==>  2, 0, 0
info: Block# = 339 ==>  2, 0, 0
info: Block# = 340 ==>  0, 0, 0
info: Block# = 341 ==>  1, 0, 0
info: Block# = 342 ==>  0, 0, 0
info: Block# = 343 ==>  1, 0, 0
info: Block# = 344 ==>  0, 0, 0
info: Block# = 345 ==>  3, 0, 0
info: Block# = 346 ==>  2, 0, 0
info: Block# = 347 ==>  0, 0, 0
info: Block# = 348 ==>  0, 0, 0
info: Block# = 349 ==>  1, 0, 0
info: Block# = 350 ==>  3, 0, 0
info: Block# = 351 ==>  0, 0, 0
info: Block# = 352 ==>  0, 0, 0
info: Block# = 353 ==>  2, 0, 0
info: Block# = 354 ==>  1, 0, 0
info: Block# = 355 ==>  1, 0, 0
info: Block# = 356 ==>  0, 0, 0
info: Block# = 357 ==>  0, 0, 0
info: Block# = 358 ==>  2, 0, 0
info: Block# = 359 ==>  2, 0, 0
info: Block# = 360 ==>  0, 0, 0
info: Block# = 361 ==>  4, 0, 0
info: Block# = 362 ==>  2, 0, 0
info: Block# = 363 ==>  1, 0, 0
info: Block# = 364 ==>  0, 0, 0
info: Block# = 365 ==>  0, 0, 0
info: Block# = 366 ==>  3, 0, 0
info: Block# = 367 ==>  1, 0, 0
info: Block# = 368 ==>  0, 0, 0
info: Block# = 369 ==>  2, 0, 0
info: Block# = 370 ==>  2, 0, 0
info: Block# = 371 ==>  4, 0, 0
info: Block# = 372 ==>  0, 0, 0
info: Block# = 373 ==>  1, 0, 0
info: Block# = 374 ==>  2, 0, 0
info: Block# = 375 ==>  1, 0, 0
info: Block# = 376 ==>  0, 0, 0
info: Block# = 377 ==>  2, 0, 0
info: Block# = 378 ==>  1, 0, 0
info: Block# = 379 ==>  4, 0, 0
info: Block# = 380 ==>  0, 0, 0
info: Block# = 381 ==>  0, 0, 0
info: Block# = 382 ==>  0, 0, 0
info: Block# = 383 ==>  3, 0, 0
info: Block# = 384 ==>  0, 0, 0
info: Block# = 385 ==>  0, 0, 0
info: Block# = 386 ==>  1, 0, 0
info: Block# = 387 ==>  0, 0, 0
info: Block# = 388 ==>  0, 0, 0
info: Block# = 389 ==>  2, 0, 0
info: Block# = 390 ==>  3, 0, 0
info: Block# = 391 ==>  1, 0, 0
info: Block# = 392 ==>  0, 0, 0
info: Block# = 393 ==>  0, 0, 0
info: Block# = 394 ==>  0, 0, 0
info: Block# = 395 ==>  5, 0, 0
info: Block# = 396 ==>  0, 0, 0
info: Block# = 397 ==>  0, 0, 0
info: Block# = 398 ==>  0, 0, 0
info: Block# = 399 ==>  3, 0, 0
info: Block# = 400 ==>  0, 0, 0
info: Block# = 401 ==>  1, 0, 0
info: Block# = 402 ==>  0, 0, 0
info: Block# = 403 ==>  1, 0, 0
info: Block# = 404 ==>  0, 0, 0
info: Block# = 405 ==>  1, 0, 0
info: Block# = 406 ==>  1, 0, 0
info: Block# = 407 ==>  0, 0, 0
info: Block# = 408 ==>  0, 0, 0
info: Block# = 409 ==>  0, 0, 0
info: Block# = 410 ==>  2, 0, 0
info: Block# = 411 ==>  3, 0, 0
info: Block# = 412 ==>  0, 0, 0
info: Block# = 413 ==>  2, 0, 0
info: Block# = 414 ==>  0, 0, 0
info: Block# = 415 ==>  1, 0, 0
info: Block# = 416 ==>  0, 0, 0
info: Block# = 417 ==>  1, 0, 0
info: Block# = 418 ==>  4, 0, 0
info: Block# = 419 ==>  3, 0, 0
info: Block# = 420 ==>  0, 0, 0
info: Block# = 421 ==>  5, 0, 0
info: Block# = 422 ==>  2, 0, 0
info: Block# = 423 ==>  1, 0, 0
info: Block# = 424 ==>  0, 0, 0
info: Block# = 425 ==>  2, 0, 0
info: Block# = 426 ==>  1, 0, 0
info: Block# = 427 ==>  0, 0, 0
info: Block# = 428 ==>  0, 0, 0
info: Block# = 429 ==>  2, 0, 0
info: Block# = 430 ==>  1, 0, 0
info: Block# = 431 ==>  2, 0, 0
info: Block# = 432 ==>  0, 0, 0
info: Block# = 433 ==>  2, 0, 0
info: Block# = 434 ==>  3, 0, 0
info: Block# = 435 ==>  0, 0, 0
info: Block# = 436 ==>  0, 0, 0
info: Block# = 437 ==>  1, 0, 0
info: Block# = 438 ==>  0, 0, 0
info: Block# = 439 ==>  0, 0, 0
info: Block# = 440 ==>  0, 0, 0
info: Block# = 441 ==>  0, 0, 0
info: Block# = 442 ==>  2, 0, 0
info: Block# = 443 ==>  1, 0, 0
info: Block# = 444 ==>  0, 0, 0
info: Block# = 445 ==>  1, 0, 0
info: Block# = 446 ==>  0, 0, 0
info: Block# = 447 ==>  3, 0, 0
info: Block# = 448 ==>  0, 0, 0
info: Block# = 449 ==>  3, 0, 0
info: Block# = 450 ==>  1, 0, 0
info: Block# = 451 ==>  2, 0, 0
info: Block# = 452 ==>  0, 0, 0
info: Block# = 453 ==>  2, 0, 0
info: Block# = 454 ==>  0, 0, 0
info: Block# = 455 ==>  1, 0, 0
info: Block# = 456 ==>  0, 0, 0
info: Block# = 457 ==>  1, 0, 0
info: Block# = 458 ==>  0, 0, 0
info: Block# = 459 ==>  2, 0, 0
info: Block# = 460 ==>  0, 0, 0
info: Block# = 461 ==>  0, 0, 0
info: Block# = 462 ==>  3, 0, 0
info: Block# = 463 ==>  3, 0, 0
info: Block# = 464 ==>  0, 0, 0
info: Block# = 465 ==>  1, 0, 0
info: Block# = 466 ==>  0, 0, 0
info: Block# = 467 ==>  3, 0, 0
info: Block# = 468 ==>  0, 0, 0
info: Block# = 469 ==>  3, 0, 0
info: Block# = 470 ==>  0, 0, 0
info: Block# = 471 ==>  0, 0, 0
info: Block# = 472 ==>  0, 0, 0
info: Block# = 473 ==>  3, 0, 0
info: Block# = 474 ==>  3, 0, 0
info: Block# = 475 ==>  2, 0, 0
info: Block# = 476 ==>  0, 0, 0
info: Block# = 477 ==>  0, 0, 0
info: Block# = 478 ==>  4, 0, 0
info: Block# = 479 ==>  0, 0, 0
info: Block# = 480 ==>  0, 0, 0
info: Block# = 481 ==>  0, 0, 0
info: Block# = 482 ==>  3, 0, 0
info: Block# = 483 ==>  3, 0, 0
info: Block# = 484 ==>  0, 0, 0
info: Block# = 485 ==>  1, 0, 0
info: Block# = 486 ==>  1, 0, 0
info: Block# = 487 ==>  1, 0, 0
info: Block# = 488 ==>  0, 0, 0
info: Block# = 489 ==>  2, 0, 0
info: Block# = 490 ==>  3, 0, 0
info: Block# = 491 ==>  4, 0, 0
info: Block# = 492 ==>  0, 0, 0
info: Block# = 493 ==>  1, 0, 0
info: Block# = 494 ==>  2, 0, 0
info: Block# = 495 ==>  2, 0, 0
info: Block# = 496 ==>  0, 0, 0
info: Block# = 497 ==>  1, 0, 0
info: Block# = 498 ==>  1, 0, 0
info: Block# = 499 ==>  2, 0, 0
info: Block# = 500 ==>  0, 0, 0
info: Block# = 501 ==>  4, 0, 0
info: Block# = 502 ==>  0, 0, 0
info: Block# = 503 ==>  1, 0, 0
info: Block# = 504 ==>  0, 0, 0
info: Block# = 505 ==>  1, 0, 0
info: Block# = 506 ==>  3, 0, 0
info: Block# = 507 ==>  3, 0, 0
info: Block# = 508 ==>  0, 0, 0
info: Block# = 509 ==>  2, 0, 0
info: Block# = 510 ==>  1, 0, 0
info: Block# = 511 ==>  3, 0, 0
info: Block [1][1] disabled and invalidated 
info: Block [1][3] disabled and invalidated 
info: Block [2][2] disabled and invalidated 
info: Block [3][2] disabled and invalidated 
info: Block [3][3] disabled and invalidated 
info: Block [4][3] disabled and invalidated 
info: Block [7][1] disabled and invalidated 
info: Block [8][1] disabled and invalidated 
info: Block [11][1] disabled and invalidated 
info: Block [12][1] disabled and invalidated 
info: Block [14][1] disabled and invalidated 
info: Block [15][3] disabled and invalidated 
info: Block [18][1] disabled and invalidated 
info: Block [18][3] disabled and invalidated 
info: Block [20][1] disabled and invalidated 
info: Block [23][1] disabled and invalidated 
info: Block [28][1] disabled and invalidated 
info: Block [28][2] disabled and invalidated 
info: Block [28][3] disabled and invalidated 
info: Block [29][1] disabled and invalidated 
info: Block [29][3] disabled and invalidated 
info: Block [33][2] disabled and invalidated 
info: Block [34][1] disabled and invalidated 
info: Block [36][3] disabled and invalidated 
info: Block [38][3] disabled and invalidated 
info: Block [39][2] disabled and invalidated 
info: Block [42][2] disabled and invalidated 
info: Block [43][3] disabled and invalidated 
info: Block [45][2] disabled and invalidated 
info: Block [47][2] disabled and invalidated 
info: Block [47][3] disabled and invalidated 
info: Block [48][1] disabled and invalidated 
info: Block [52][3] disabled and invalidated 
info: Block [53][2] disabled and invalidated 
info: Block [54][2] disabled and invalidated 
info: Block [54][3] disabled and invalidated 
info: Block [57][1] disabled and invalidated 
info: Block [57][2] disabled and invalidated 
info: Block [60][1] disabled and invalidated 
info: Block [60][2] disabled and invalidated 
info: Block [61][1] disabled and invalidated 
info: Block [61][3] disabled and invalidated 
info: Block [64][1] disabled and invalidated 
info: Block [64][3] disabled and invalidated 
info: Block [65][3] disabled and invalidated 
info: Block [67][2] disabled and invalidated 
info: Block [67][3] disabled and invalidated 
info: Block [68][1] disabled and invalidated 
info: Block [69][2] disabled and invalidated 
info: Block [69][3] disabled and invalidated 
info: Block [70][3] disabled and invalidated 
info: Block [71][3] disabled and invalidated 
info: Block [73][1] disabled and invalidated 
info: Block [73][2] disabled and invalidated 
info: Block [74][3] disabled and invalidated 
info: Block [77][1] disabled and invalidated 
info: Block [79][1] disabled and invalidated 
info: Block [80][2] disabled and invalidated 
info: Block [82][1] disabled and invalidated 
info: Block [83][3] disabled and invalidated 
info: Block [86][1] disabled and invalidated 
info: Block [87][2] disabled and invalidated 
info: Block [90][1] disabled and invalidated 
info: Block [91][2] disabled and invalidated 
info: Block [92][3] disabled and invalidated 
info: Block [94][3] disabled and invalidated 
info: Block [95][3] disabled and invalidated 
info: Block [97][2] disabled and invalidated 
info: Block [98][3] disabled and invalidated 
info: Block [99][3] disabled and invalidated 
info: Block [102][3] disabled and invalidated 
info: Block [104][2] disabled and invalidated 
info: Block [104][3] disabled and invalidated 
info: Block [105][1] disabled and invalidated 
info: Block [108][2] disabled and invalidated 
info: Block [111][3] disabled and invalidated 
info: Block [112][1] disabled and invalidated 
info: Block [115][2] disabled and invalidated 
info: Block [115][3] disabled and invalidated 
info: Block [116][3] disabled and invalidated 
info: Block [117][1] disabled and invalidated 
info: Block [118][1] disabled and invalidated 
info: Block [118][2] disabled and invalidated 
info: Block [119][2] disabled and invalidated 
info: Block [120][2] disabled and invalidated 
info: Block [120][3] disabled and invalidated 
info: Block [122][2] disabled and invalidated 
info: Block [122][3] disabled and invalidated 
info: Block [125][1] disabled and invalidated 
info: Block [126][2] disabled and invalidated 
info: Block [126][3] disabled and invalidated 
info: Block [127][3] disabled and invalidated 
info: Dumping cache status for current VDD = 480 mV and AFB = 2...
info: Status Bits: Disabled, Faulty, HWPrefetched, Referenced | Dirty, Readable, Writable, Valid
info: Block# = 0 ==>  0
info: Block# = 1 ==> 40
info: Block# = 2 ==>  0
info: Block# = 3 ==>  0
info: Block# = 4 ==>  0
info: Block# = 5 ==> c0
info: Block# = 6 ==> 40
info: Block# = 7 ==> c0
info: Block# = 8 ==>  0
info: Block# = 9 ==> 40
info: Block# = 10 ==> c0
info: Block# = 11 ==>  0
info: Block# = 12 ==>  0
info: Block# = 13 ==> 40
info: Block# = 14 ==> c0
info: Block# = 15 ==> c0
info: Block# = 16 ==>  0
info: Block# = 17 ==> 40
info: Block# = 18 ==> 40
info: Block# = 19 ==> c0
info: Block# = 20 ==>  0
info: Block# = 21 ==> 40
info: Block# = 22 ==> 40
info: Block# = 23 ==> 40
info: Block# = 24 ==>  0
info: Block# = 25 ==>  0
info: Block# = 26 ==> 40
info: Block# = 27 ==> 40
info: Block# = 28 ==>  0
info: Block# = 29 ==> c0
info: Block# = 30 ==> 40
info: Block# = 31 ==>  0
info: Block# = 32 ==>  0
info: Block# = 33 ==> c0
info: Block# = 34 ==> 40
info: Block# = 35 ==>  0
info: Block# = 36 ==>  0
info: Block# = 37 ==> 40
info: Block# = 38 ==>  0
info: Block# = 39 ==> 40
info: Block# = 40 ==>  0
info: Block# = 41 ==> 40
info: Block# = 42 ==> 40
info: Block# = 43 ==>  0
info: Block# = 44 ==>  0
info: Block# = 45 ==> c0
info: Block# = 46 ==> 40
info: Block# = 47 ==> 40
info: Block# = 48 ==>  0
info: Block# = 49 ==> c0
info: Block# = 50 ==> 40
info: Block# = 51 ==> 40
info: Block# = 52 ==>  0
info: Block# = 53 ==> 40
info: Block# = 54 ==> 40
info: Block# = 55 ==> 40
info: Block# = 56 ==>  0
info: Block# = 57 ==> c0
info: Block# = 58 ==> 40
info: Block# = 59 ==>  0
info: Block# = 60 ==>  0
info: Block# = 61 ==> 40
info: Block# = 62 ==> 40
info: Block# = 63 ==> c0
info: Block# = 64 ==>  0
info: Block# = 65 ==> 40
info: Block# = 66 ==> 40
info: Block# = 67 ==> 40
info: Block# = 68 ==>  0
info: Block# = 69 ==>  0
info: Block# = 70 ==> 40
info: Block# = 71 ==>  0
info: Block# = 72 ==>  0
info: Block# = 73 ==> c0
info: Block# = 74 ==> 40
info: Block# = 75 ==> c0
info: Block# = 76 ==>  0
info: Block# = 77 ==> 40
info: Block# = 78 ==>  0
info: Block# = 79 ==> 40
info: Block# = 80 ==>  0
info: Block# = 81 ==> c0
info: Block# = 82 ==>  0
info: Block# = 83 ==>  0
info: Block# = 84 ==>  0
info: Block# = 85 ==> 40
info: Block# = 86 ==>  0
info: Block# = 87 ==> 40
info: Block# = 88 ==>  0
info: Block# = 89 ==> 40
info: Block# = 90 ==> 40
info: Block# = 91 ==>  0
info: Block# = 92 ==>  0
info: Block# = 93 ==> c0
info: Block# = 94 ==> 40
info: Block# = 95 ==> 40
info: Block# = 96 ==>  0
info: Block# = 97 ==> 40
info: Block# = 98 ==>  0
info: Block# = 99 ==> 40
info: Block# = 100 ==>  0
info: Block# = 101 ==> 40
info: Block# = 102 ==>  0
info: Block# = 103 ==>  0
info: Block# = 104 ==>  0
info: Block# = 105 ==> 40
info: Block# = 106 ==> 40
info: Block# = 107 ==> 40
info: Block# = 108 ==>  0
info: Block# = 109 ==> 40
info: Block# = 110 ==> 40
info: Block# = 111 ==>  0
info: Block# = 112 ==>  0
info: Block# = 113 ==> c0
info: Block# = 114 ==> c0
info: Block# = 115 ==> c0
info: Block# = 116 ==>  0
info: Block# = 117 ==> c0
info: Block# = 118 ==>  0
info: Block# = 119 ==> c0
info: Block# = 120 ==>  0
info: Block# = 121 ==> 40
info: Block# = 122 ==> 40
info: Block# = 123 ==> 40
info: Block# = 124 ==>  0
info: Block# = 125 ==>  0
info: Block# = 126 ==> 40
info: Block# = 127 ==>  0
info: Block# = 128 ==>  0
info: Block# = 129 ==> 40
info: Block# = 130 ==>  0
info: Block# = 131 ==> 40
info: Block# = 132 ==>  0
info: Block# = 133 ==> 40
info: Block# = 134 ==> c0
info: Block# = 135 ==> 40
info: Block# = 136 ==>  0
info: Block# = 137 ==> c0
info: Block# = 138 ==> 40
info: Block# = 139 ==> 40
info: Block# = 140 ==>  0
info: Block# = 141 ==> 40
info: Block# = 142 ==> 40
info: Block# = 143 ==>  0
info: Block# = 144 ==>  0
info: Block# = 145 ==> 40
info: Block# = 146 ==> 40
info: Block# = 147 ==> c0
info: Block# = 148 ==>  0
info: Block# = 149 ==> 40
info: Block# = 150 ==> 40
info: Block# = 151 ==>  0
info: Block# = 152 ==>  0
info: Block# = 153 ==>  0
info: Block# = 154 ==> 40
info: Block# = 155 ==> c0
info: Block# = 156 ==>  0
info: Block# = 157 ==>  0
info: Block# = 158 ==> c0
info: Block# = 159 ==> 40
info: Block# = 160 ==>  0
info: Block# = 161 ==>  0
info: Block# = 162 ==> 40
info: Block# = 163 ==>  0
info: Block# = 164 ==>  0
info: Block# = 165 ==> 40
info: Block# = 166 ==> 40
info: Block# = 167 ==> 40
info: Block# = 168 ==>  0
info: Block# = 169 ==> 40
info: Block# = 170 ==> c0
info: Block# = 171 ==> 40
info: Block# = 172 ==>  0
info: Block# = 173 ==> 40
info: Block# = 174 ==>  0
info: Block# = 175 ==> c0
info: Block# = 176 ==>  0
info: Block# = 177 ==> 40
info: Block# = 178 ==> 40
info: Block# = 179 ==>  0
info: Block# = 180 ==>  0
info: Block# = 181 ==>  0
info: Block# = 182 ==> c0
info: Block# = 183 ==> 40
info: Block# = 184 ==>  0
info: Block# = 185 ==>  0
info: Block# = 186 ==> 40
info: Block# = 187 ==>  0
info: Block# = 188 ==>  0
info: Block# = 189 ==> 40
info: Block# = 190 ==> c0
info: Block# = 191 ==> c0
info: Block# = 192 ==>  0
info: Block# = 193 ==> c0
info: Block# = 194 ==> 40
info: Block# = 195 ==> 40
info: Block# = 196 ==>  0
info: Block# = 197 ==> 40
info: Block# = 198 ==> 40
info: Block# = 199 ==> 40
info: Block# = 200 ==>  0
info: Block# = 201 ==> 40
info: Block# = 202 ==> 40
info: Block# = 203 ==>  0
info: Block# = 204 ==>  0
info: Block# = 205 ==> 40
info: Block# = 206 ==>  0
info: Block# = 207 ==> 40
info: Block# = 208 ==>  0
info: Block# = 209 ==>  0
info: Block# = 210 ==> 40
info: Block# = 211 ==> c0
info: Block# = 212 ==>  0
info: Block# = 213 ==> 40
info: Block# = 214 ==> c0
info: Block# = 215 ==> 40
info: Block# = 216 ==>  0
info: Block# = 217 ==>  0
info: Block# = 218 ==> c0
info: Block# = 219 ==> c0
info: Block# = 220 ==>  0
info: Block# = 221 ==>  0
info: Block# = 222 ==> 40
info: Block# = 223 ==> 40
info: Block# = 224 ==>  0
info: Block# = 225 ==> 40
info: Block# = 226 ==> 40
info: Block# = 227 ==> 40
info: Block# = 228 ==>  0
info: Block# = 229 ==> c0
info: Block# = 230 ==> c0
info: Block# = 231 ==>  0
info: Block# = 232 ==>  0
info: Block# = 233 ==> 40
info: Block# = 234 ==> 40
info: Block# = 235 ==> 40
info: Block# = 236 ==>  0
info: Block# = 237 ==> 40
info: Block# = 238 ==> 40
info: Block# = 239 ==>  0
info: Block# = 240 ==>  0
info: Block# = 241 ==> c0
info: Block# = 242 ==> c0
info: Block# = 243 ==> 40
info: Block# = 244 ==>  0
info: Block# = 245 ==> c0
info: Block# = 246 ==> 40
info: Block# = 247 ==> c0
info: Block# = 248 ==>  0
info: Block# = 249 ==> 40
info: Block# = 250 ==> 40
info: Block# = 251 ==> 40
info: Block# = 252 ==>  0
info: Block# = 253 ==>  0
info: Block# = 254 ==> 40
info: Block# = 255 ==> 40
info: Block# = 256 ==>  0
info: Block# = 257 ==> c0
info: Block# = 258 ==> 40
info: Block# = 259 ==> c0
info: Block# = 260 ==>  0
info: Block# = 261 ==> 40
info: Block# = 262 ==> 40
info: Block# = 263 ==> c0
info: Block# = 264 ==>  0
info: Block# = 265 ==>  0
info: Block# = 266 ==> 40
info: Block# = 267 ==> 40
info: Block# = 268 ==>  0
info: Block# = 269 ==> 40
info: Block# = 270 ==> c0
info: Block# = 271 ==> c0
info: Block# = 272 ==>  0
info: Block# = 273 ==> c0
info: Block# = 274 ==>  0
info: Block# = 275 ==> 40
info: Block# = 276 ==>  0
info: Block# = 277 ==> 40
info: Block# = 278 ==> c0
info: Block# = 279 ==> c0
info: Block# = 280 ==>  0
info: Block# = 281 ==> 40
info: Block# = 282 ==> 40
info: Block# = 283 ==> c0
info: Block# = 284 ==>  0
info: Block# = 285 ==> 40
info: Block# = 286 ==> 40
info: Block# = 287 ==> c0
info: Block# = 288 ==>  0
info: Block# = 289 ==> 40
info: Block# = 290 ==> 40
info: Block# = 291 ==>  0
info: Block# = 292 ==>  0
info: Block# = 293 ==> c0
info: Block# = 294 ==> c0
info: Block# = 295 ==> 40
info: Block# = 296 ==>  0
info: Block# = 297 ==>  0
info: Block# = 298 ==> 40
info: Block# = 299 ==> c0
info: Block# = 300 ==>  0
info: Block# = 301 ==> 40
info: Block# = 302 ==> 40
info: Block# = 303 ==> 40
info: Block# = 304 ==>  0
info: Block# = 305 ==> 40
info: Block# = 306 ==>  0
info: Block# = 307 ==> 40
info: Block# = 308 ==>  0
info: Block# = 309 ==> c0
info: Block# = 310 ==> 40
info: Block# = 311 ==>  0
info: Block# = 312 ==>  0
info: Block# = 313 ==>  0
info: Block# = 314 ==>  0
info: Block# = 315 ==> 40
info: Block# = 316 ==>  0
info: Block# = 317 ==> c0
info: Block# = 318 ==> 40
info: Block# = 319 ==>  0
info: Block# = 320 ==>  0
info: Block# = 321 ==>  0
info: Block# = 322 ==> c0
info: Block# = 323 ==> 40
info: Block# = 324 ==>  0
info: Block# = 325 ==> 40
info: Block# = 326 ==> 40
info: Block# = 327 ==>  0
info: Block# = 328 ==>  0
info: Block# = 329 ==> c0
info: Block# = 330 ==> 40
info: Block# = 331 ==>  0
info: Block# = 332 ==>  0
info: Block# = 333 ==> 40
info: Block# = 334 ==> 40
info: Block# = 335 ==> c0
info: Block# = 336 ==>  0
info: Block# = 337 ==> 40
info: Block# = 338 ==> 40
info: Block# = 339 ==> 40
info: Block# = 340 ==>  0
info: Block# = 341 ==> 40
info: Block# = 342 ==>  0
info: Block# = 343 ==> 40
info: Block# = 344 ==>  0
info: Block# = 345 ==> c0
info: Block# = 346 ==> 40
info: Block# = 347 ==>  0
info: Block# = 348 ==>  0
info: Block# = 349 ==> 40
info: Block# = 350 ==> c0
info: Block# = 351 ==>  0
info: Block# = 352 ==>  0
info: Block# = 353 ==> 40
info: Block# = 354 ==> 40
info: Block# = 355 ==> 40
info: Block# = 356 ==>  0
info: Block# = 357 ==>  0
info: Block# = 358 ==> 40
info: Block# = 359 ==> 40
info: Block# = 360 ==>  0
info: Block# = 361 ==> c0
info: Block# = 362 ==> 40
info: Block# = 363 ==> 40
info: Block# = 364 ==>  0
info: Block# = 365 ==>  0
info: Block# = 366 ==> c0
info: Block# = 367 ==> 40
info: Block# = 368 ==>  0
info: Block# = 369 ==> 40
info: Block# = 370 ==> 40
info: Block# = 371 ==> c0
info: Block# = 372 ==>  0
info: Block# = 373 ==> 40
info: Block# = 374 ==> 40
info: Block# = 375 ==> 40
info: Block# = 376 ==>  0
info: Block# = 377 ==> 40
info: Block# = 378 ==> 40
info: Block# = 379 ==> c0
info: Block# = 380 ==>  0
info: Block# = 381 ==>  0
info: Block# = 382 ==>  0
info: Block# = 383 ==> c0
info: Block# = 384 ==>  0
info: Block# = 385 ==>  0
info: Block# = 386 ==> 40
info: Block# = 387 ==>  0
info: Block# = 388 ==>  0
info: Block# = 389 ==> 40
info: Block# = 390 ==> c0
info: Block# = 391 ==> 40
info: Block# = 392 ==>  0
info: Block# = 393 ==>  0
info: Block# = 394 ==>  0
info: Block# = 395 ==> c0
info: Block# = 396 ==>  0
info: Block# = 397 ==>  0
info: Block# = 398 ==>  0
info: Block# = 399 ==> c0
info: Block# = 400 ==>  0
info: Block# = 401 ==> 40
info: Block# = 402 ==>  0
info: Block# = 403 ==> 40
info: Block# = 404 ==>  0
info: Block# = 405 ==> 40
info: Block# = 406 ==> 40
info: Block# = 407 ==>  0
info: Block# = 408 ==>  0
info: Block# = 409 ==>  0
info: Block# = 410 ==> 40
info: Block# = 411 ==> c0
info: Block# = 412 ==>  0
info: Block# = 413 ==> 40
info: Block# = 414 ==>  0
info: Block# = 415 ==> 40
info: Block# = 416 ==>  0
info: Block# = 417 ==> 40
info: Block# = 418 ==> c0
info: Block# = 419 ==> c0
info: Block# = 420 ==>  0
info: Block# = 421 ==> c0
info: Block# = 422 ==> 40
info: Block# = 423 ==> 40
info: Block# = 424 ==>  0
info: Block# = 425 ==> 40
info: Block# = 426 ==> 40
info: Block# = 427 ==>  0
info: Block# = 428 ==>  0
info: Block# = 429 ==> 40
info: Block# = 430 ==> 40
info: Block# = 431 ==> 40
info: Block# = 432 ==>  0
info: Block# = 433 ==> 40
info: Block# = 434 ==> c0
info: Block# = 435 ==>  0
info: Block# = 436 ==>  0
info: Block# = 437 ==> 40
info: Block# = 438 ==>  0
info: Block# = 439 ==>  0
info: Block# = 440 ==>  0
info: Block# = 441 ==>  0
info: Block# = 442 ==> 40
info: Block# = 443 ==> 40
info: Block# = 444 ==>  0
info: Block# = 445 ==> 40
info: Block# = 446 ==>  0
info: Block# = 447 ==> c0
info: Block# = 448 ==>  0
info: Block# = 449 ==> c0
info: Block# = 450 ==> 40
info: Block# = 451 ==> 40
info: Block# = 452 ==>  0
info: Block# = 453 ==> 40
info: Block# = 454 ==>  0
info: Block# = 455 ==> 40
info: Block# = 456 ==>  0
info: Block# = 457 ==> 40
info: Block# = 458 ==>  0
info: Block# = 459 ==> 40
info: Block# = 460 ==>  0
info: Block# = 461 ==>  0
info: Block# = 462 ==> c0
info: Block# = 463 ==> c0
info: Block# = 464 ==>  0
info: Block# = 465 ==> 40
info: Block# = 466 ==>  0
info: Block# = 467 ==> c0
info: Block# = 468 ==>  0
info: Block# = 469 ==> c0
info: Block# = 470 ==>  0
info: Block# = 471 ==>  0
info: Block# = 472 ==>  0
info: Block# = 473 ==> c0
info: Block# = 474 ==> c0
info: Block# = 475 ==> 40
info: Block# = 476 ==>  0
info: Block# = 477 ==>  0
info: Block# = 478 ==> c0
info: Block# = 479 ==>  0
info: Block# = 480 ==>  0
info: Block# = 481 ==>  0
info: Block# = 482 ==> c0
info: Block# = 483 ==> c0
info: Block# = 484 ==>  0
info: Block# = 485 ==> 40
info: Block# = 486 ==> 40
info: Block# = 487 ==> 40
info: Block# = 488 ==>  0
info: Block# = 489 ==> 40
info: Block# = 490 ==> c0
info: Block# = 491 ==> c0
info: Block# = 492 ==>  0
info: Block# = 493 ==> 40
info: Block# = 494 ==> 40
info: Block# = 495 ==> 40
info: Block# = 496 ==>  0
info: Block# = 497 ==> 40
info: Block# = 498 ==> 40
info: Block# = 499 ==> 40
info: Block# = 500 ==>  0
info: Block# = 501 ==> c0
info: Block# = 502 ==>  0
info: Block# = 503 ==> 40
info: Block# = 504 ==>  0
info: Block# = 505 ==> 40
info: Block# = 506 ==> c0
info: Block# = 507 ==> c0
info: Block# = 508 ==>  0
info: Block# = 509 ==> 40
info: Block# = 510 ==> 40
info: Block# = 511 ==> c0
Switch at instruction count:3390
info: Entering event queue @ 0.  Starting simulation...
info: Increasing stack size by one page.
Switched CPUS @ tick 1710500
switching cpus
**** REAL SIMULATION ****
info: Entering event queue @ 1710500.  Starting simulation...
scale by 2.000000: /home/majid/gem5/gem5-relax/tests/test-progs/scale/inputs/sailboat.ppm -> /home/majid/gem5/gem5-relax/tests/test-progs/scale/outputs/sailboat-X2-480-2-relaxed-1.ppm
read from "/home/majid/gem5/gem5-relax/tests/test-progs/scale/inputs/sailboat.ppm" ...
/home/majid/gem5/gem5-relax/tests/test-progs/scale/inputs/sailboat.ppm: 512 x 512 : 255
40280000: global: Approximate Region Added: begin=0x14010, end=0x31401c, Table Size=1
transformed image size: 1024 x 1024
5555876500: global: Approximate Region Added: begin=0x316010, end=0xf1601c, Table Size=2
write to "/home/majid/gem5/gem5-relax/tests/test-progs/scale/outputs/sailboat-X2-480-2-relaxed-1.ppm" ...
184975491500: global: Approximate Region Removed: begin=0x14010, end=0x31401c, Table Size=1
184975495500: global: Approximate Region Removed: begin=0x316010, end=0xf1601c, Table Size=0
Exiting @ tick 184980403000 because target called exit()
