
---------- Begin Simulation Statistics ----------
sim_seconds                                  0.224350                       # Number of seconds simulated
sim_ticks                                224349704000                       # Number of ticks simulated
final_tick                               224351415000                       # Number of ticks from beginning of simulation (restored from checkpoints and never reset)
sim_freq                                 1000000000000                       # Frequency of simulated ticks
host_inst_rate                                  35982                       # Simulator instruction rate (inst/s)
host_op_rate                                    35982                       # Simulator op (including micro ops) rate (op/s)
host_tick_rate                               11700920                       # Simulator tick rate (ticks/s)
host_mem_usage                                 750036                       # Number of bytes of host memory used
host_seconds                                 19173.68                       # Real time elapsed on the host
sim_insts                                   689910491                       # Number of instructions simulated
sim_ops                                     689910491                       # Number of ops (including micro ops) simulated
system.physmem.bytes_read::switch_cpus.inst        34240                       # Number of bytes read from this memory
system.physmem.bytes_read::switch_cpus.data       203648                       # Number of bytes read from this memory
system.physmem.bytes_read::total               237888                       # Number of bytes read from this memory
system.physmem.bytes_inst_read::switch_cpus.inst        34240                       # Number of instructions bytes read from this memory
system.physmem.bytes_inst_read::total           34240                       # Number of instructions bytes read from this memory
system.physmem.bytes_written::writebacks          640                       # Number of bytes written to this memory
system.physmem.bytes_written::total               640                       # Number of bytes written to this memory
system.physmem.num_reads::switch_cpus.inst          535                       # Number of read requests responded to by this memory
system.physmem.num_reads::switch_cpus.data         3182                       # Number of read requests responded to by this memory
system.physmem.num_reads::total                  3717                       # Number of read requests responded to by this memory
system.physmem.num_writes::writebacks              10                       # Number of write requests responded to by this memory
system.physmem.num_writes::total                   10                       # Number of write requests responded to by this memory
system.physmem.bw_read::switch_cpus.inst       152619                       # Total read bandwidth from this memory (bytes/s)
system.physmem.bw_read::switch_cpus.data       907726                       # Total read bandwidth from this memory (bytes/s)
system.physmem.bw_read::total                 1060345                       # Total read bandwidth from this memory (bytes/s)
system.physmem.bw_inst_read::switch_cpus.inst       152619                       # Instruction read bandwidth from this memory (bytes/s)
system.physmem.bw_inst_read::total             152619                       # Instruction read bandwidth from this memory (bytes/s)
system.physmem.bw_write::writebacks              2853                       # Write bandwidth from this memory (bytes/s)
system.physmem.bw_write::total                   2853                       # Write bandwidth from this memory (bytes/s)
system.physmem.bw_total::writebacks              2853                       # Total bandwidth to/from this memory (bytes/s)
system.physmem.bw_total::switch_cpus.inst       152619                       # Total bandwidth to/from this memory (bytes/s)
system.physmem.bw_total::switch_cpus.data       907726                       # Total bandwidth to/from this memory (bytes/s)
system.physmem.bw_total::total                1063197                       # Total bandwidth to/from this memory (bytes/s)
system.physmem.readReqs                          3717                       # Total number of read requests seen
system.physmem.writeReqs                           10                       # Total number of write requests seen
system.physmem.cpureqs                           3727                       # Reqs generatd by CPU via cache - shady
system.physmem.bytesRead                       237888                       # Total number of bytes read from memory
system.physmem.bytesWritten                       640                       # Total number of bytes written to memory
system.physmem.bytesConsumedRd                 237888                       # bytesRead derated as per pkt->getSize()
system.physmem.bytesConsumedWr                    640                       # bytesWritten derated as per pkt->getSize()
system.physmem.servicedByWrQ                        0                       # Number of read reqs serviced by write Q
system.physmem.neitherReadNorWrite                  0                       # Reqs where no action is needed
system.physmem.perBankRdReqs::0                   140                       # Track reads on a per bank basis
system.physmem.perBankRdReqs::1                   140                       # Track reads on a per bank basis
system.physmem.perBankRdReqs::2                   139                       # Track reads on a per bank basis
system.physmem.perBankRdReqs::3                   221                       # Track reads on a per bank basis
system.physmem.perBankRdReqs::4                   401                       # Track reads on a per bank basis
system.physmem.perBankRdReqs::5                   180                       # Track reads on a per bank basis
system.physmem.perBankRdReqs::6                   446                       # Track reads on a per bank basis
system.physmem.perBankRdReqs::7                   505                       # Track reads on a per bank basis
system.physmem.perBankRdReqs::8                   322                       # Track reads on a per bank basis
system.physmem.perBankRdReqs::9                   166                       # Track reads on a per bank basis
system.physmem.perBankRdReqs::10                  310                       # Track reads on a per bank basis
system.physmem.perBankRdReqs::11                  154                       # Track reads on a per bank basis
system.physmem.perBankRdReqs::12                  156                       # Track reads on a per bank basis
system.physmem.perBankRdReqs::13                  148                       # Track reads on a per bank basis
system.physmem.perBankRdReqs::14                  156                       # Track reads on a per bank basis
system.physmem.perBankRdReqs::15                  133                       # Track reads on a per bank basis
system.physmem.perBankWrReqs::0                     1                       # Track writes on a per bank basis
system.physmem.perBankWrReqs::1                     0                       # Track writes on a per bank basis
system.physmem.perBankWrReqs::2                     1                       # Track writes on a per bank basis
system.physmem.perBankWrReqs::3                     0                       # Track writes on a per bank basis
system.physmem.perBankWrReqs::4                     0                       # Track writes on a per bank basis
system.physmem.perBankWrReqs::5                     0                       # Track writes on a per bank basis
system.physmem.perBankWrReqs::6                     1                       # Track writes on a per bank basis
system.physmem.perBankWrReqs::7                     1                       # Track writes on a per bank basis
system.physmem.perBankWrReqs::8                     1                       # Track writes on a per bank basis
system.physmem.perBankWrReqs::9                     0                       # Track writes on a per bank basis
system.physmem.perBankWrReqs::10                    1                       # Track writes on a per bank basis
system.physmem.perBankWrReqs::11                    0                       # Track writes on a per bank basis
system.physmem.perBankWrReqs::12                    1                       # Track writes on a per bank basis
system.physmem.perBankWrReqs::13                    0                       # Track writes on a per bank basis
system.physmem.perBankWrReqs::14                    1                       # Track writes on a per bank basis
system.physmem.perBankWrReqs::15                    2                       # Track writes on a per bank basis
system.physmem.numRdRetry                           0                       # Number of times rd buffer was full causing retry
system.physmem.numWrRetry                           0                       # Number of times wr buffer was full causing retry
system.physmem.totGap                    224349430000                       # Total gap between requests
system.physmem.readPktSize::0                       0                       # Categorize read packet sizes
system.physmem.readPktSize::1                       0                       # Categorize read packet sizes
system.physmem.readPktSize::2                       0                       # Categorize read packet sizes
system.physmem.readPktSize::3                       0                       # Categorize read packet sizes
system.physmem.readPktSize::4                       0                       # Categorize read packet sizes
system.physmem.readPktSize::5                       0                       # Categorize read packet sizes
system.physmem.readPktSize::6                    3717                       # Categorize read packet sizes
system.physmem.writePktSize::0                      0                       # Categorize write packet sizes
system.physmem.writePktSize::1                      0                       # Categorize write packet sizes
system.physmem.writePktSize::2                      0                       # Categorize write packet sizes
system.physmem.writePktSize::3                      0                       # Categorize write packet sizes
system.physmem.writePktSize::4                      0                       # Categorize write packet sizes
system.physmem.writePktSize::5                      0                       # Categorize write packet sizes
system.physmem.writePktSize::6                     10                       # Categorize write packet sizes
system.physmem.rdQLenPdf::0                      2161                       # What read queue length does an incoming req see
system.physmem.rdQLenPdf::1                      1465                       # What read queue length does an incoming req see
system.physmem.rdQLenPdf::2                        83                       # What read queue length does an incoming req see
system.physmem.rdQLenPdf::3                         7                       # What read queue length does an incoming req see
system.physmem.rdQLenPdf::4                         1                       # What read queue length does an incoming req see
system.physmem.rdQLenPdf::5                         0                       # What read queue length does an incoming req see
system.physmem.rdQLenPdf::6                         0                       # What read queue length does an incoming req see
system.physmem.rdQLenPdf::7                         0                       # What read queue length does an incoming req see
system.physmem.rdQLenPdf::8                         0                       # What read queue length does an incoming req see
system.physmem.rdQLenPdf::9                         0                       # What read queue length does an incoming req see
system.physmem.rdQLenPdf::10                        0                       # What read queue length does an incoming req see
system.physmem.rdQLenPdf::11                        0                       # What read queue length does an incoming req see
system.physmem.rdQLenPdf::12                        0                       # What read queue length does an incoming req see
system.physmem.rdQLenPdf::13                        0                       # What read queue length does an incoming req see
system.physmem.rdQLenPdf::14                        0                       # What read queue length does an incoming req see
system.physmem.rdQLenPdf::15                        0                       # What read queue length does an incoming req see
system.physmem.rdQLenPdf::16                        0                       # What read queue length does an incoming req see
system.physmem.rdQLenPdf::17                        0                       # What read queue length does an incoming req see
system.physmem.rdQLenPdf::18                        0                       # What read queue length does an incoming req see
system.physmem.rdQLenPdf::19                        0                       # What read queue length does an incoming req see
system.physmem.rdQLenPdf::20                        0                       # What read queue length does an incoming req see
system.physmem.rdQLenPdf::21                        0                       # What read queue length does an incoming req see
system.physmem.rdQLenPdf::22                        0                       # What read queue length does an incoming req see
system.physmem.rdQLenPdf::23                        0                       # What read queue length does an incoming req see
system.physmem.rdQLenPdf::24                        0                       # What read queue length does an incoming req see
system.physmem.rdQLenPdf::25                        0                       # What read queue length does an incoming req see
system.physmem.rdQLenPdf::26                        0                       # What read queue length does an incoming req see
system.physmem.rdQLenPdf::27                        0                       # What read queue length does an incoming req see
system.physmem.rdQLenPdf::28                        0                       # What read queue length does an incoming req see
system.physmem.rdQLenPdf::29                        0                       # What read queue length does an incoming req see
system.physmem.rdQLenPdf::30                        0                       # What read queue length does an incoming req see
system.physmem.rdQLenPdf::31                        0                       # What read queue length does an incoming req see
system.physmem.wrQLenPdf::0                         1                       # What write queue length does an incoming req see
system.physmem.wrQLenPdf::1                         1                       # What write queue length does an incoming req see
system.physmem.wrQLenPdf::2                         1                       # What write queue length does an incoming req see
system.physmem.wrQLenPdf::3                         1                       # What write queue length does an incoming req see
system.physmem.wrQLenPdf::4                         1                       # What write queue length does an incoming req see
system.physmem.wrQLenPdf::5                         1                       # What write queue length does an incoming req see
system.physmem.wrQLenPdf::6                         1                       # What write queue length does an incoming req see
system.physmem.wrQLenPdf::7                         1                       # What write queue length does an incoming req see
system.physmem.wrQLenPdf::8                         1                       # What write queue length does an incoming req see
system.physmem.wrQLenPdf::9                         1                       # What write queue length does an incoming req see
system.physmem.wrQLenPdf::10                        0                       # What write queue length does an incoming req see
system.physmem.wrQLenPdf::11                        0                       # What write queue length does an incoming req see
system.physmem.wrQLenPdf::12                        0                       # What write queue length does an incoming req see
system.physmem.wrQLenPdf::13                        0                       # What write queue length does an incoming req see
system.physmem.wrQLenPdf::14                        0                       # What write queue length does an incoming req see
system.physmem.wrQLenPdf::15                        0                       # What write queue length does an incoming req see
system.physmem.wrQLenPdf::16                        0                       # What write queue length does an incoming req see
system.physmem.wrQLenPdf::17                        0                       # What write queue length does an incoming req see
system.physmem.wrQLenPdf::18                        0                       # What write queue length does an incoming req see
system.physmem.wrQLenPdf::19                        0                       # What write queue length does an incoming req see
system.physmem.wrQLenPdf::20                        0                       # What write queue length does an incoming req see
system.physmem.wrQLenPdf::21                        0                       # What write queue length does an incoming req see
system.physmem.wrQLenPdf::22                        0                       # What write queue length does an incoming req see
system.physmem.wrQLenPdf::23                        0                       # What write queue length does an incoming req see
system.physmem.wrQLenPdf::24                        0                       # What write queue length does an incoming req see
system.physmem.wrQLenPdf::25                        0                       # What write queue length does an incoming req see
system.physmem.wrQLenPdf::26                        0                       # What write queue length does an incoming req see
system.physmem.wrQLenPdf::27                        0                       # What write queue length does an incoming req see
system.physmem.wrQLenPdf::28                        0                       # What write queue length does an incoming req see
system.physmem.wrQLenPdf::29                        0                       # What write queue length does an incoming req see
system.physmem.wrQLenPdf::30                        0                       # What write queue length does an incoming req see
system.physmem.wrQLenPdf::31                        0                       # What write queue length does an incoming req see
system.physmem.bytesPerActivate::samples          165                       # Bytes accessed per row activation
system.physmem.bytesPerActivate::mean     1366.496970                       # Bytes accessed per row activation
system.physmem.bytesPerActivate::gmean     250.051356                       # Bytes accessed per row activation
system.physmem.bytesPerActivate::stdev    2668.789014                       # Bytes accessed per row activation
system.physmem.bytesPerActivate::64-65             82     49.70%     49.70% # Bytes accessed per row activation
system.physmem.bytesPerActivate::128-129           10      6.06%     55.76% # Bytes accessed per row activation
system.physmem.bytesPerActivate::192-193            6      3.64%     59.39% # Bytes accessed per row activation
system.physmem.bytesPerActivate::256-257            8      4.85%     64.24% # Bytes accessed per row activation
system.physmem.bytesPerActivate::320-321            4      2.42%     66.67% # Bytes accessed per row activation
system.physmem.bytesPerActivate::384-385            6      3.64%     70.30% # Bytes accessed per row activation
system.physmem.bytesPerActivate::512-513            3      1.82%     72.12% # Bytes accessed per row activation
system.physmem.bytesPerActivate::576-577            3      1.82%     73.94% # Bytes accessed per row activation
system.physmem.bytesPerActivate::640-641            3      1.82%     75.76% # Bytes accessed per row activation
system.physmem.bytesPerActivate::768-769            1      0.61%     76.36% # Bytes accessed per row activation
system.physmem.bytesPerActivate::832-833            4      2.42%     78.79% # Bytes accessed per row activation
system.physmem.bytesPerActivate::896-897            1      0.61%     79.39% # Bytes accessed per row activation
system.physmem.bytesPerActivate::960-961            1      0.61%     80.00% # Bytes accessed per row activation
system.physmem.bytesPerActivate::1024-1025            1      0.61%     80.61% # Bytes accessed per row activation
system.physmem.bytesPerActivate::1472-1473            1      0.61%     81.21% # Bytes accessed per row activation
system.physmem.bytesPerActivate::2112-2113            1      0.61%     81.82% # Bytes accessed per row activation
system.physmem.bytesPerActivate::2176-2177            1      0.61%     82.42% # Bytes accessed per row activation
system.physmem.bytesPerActivate::2368-2369            3      1.82%     84.24% # Bytes accessed per row activation
system.physmem.bytesPerActivate::2432-2433            1      0.61%     84.85% # Bytes accessed per row activation
system.physmem.bytesPerActivate::3008-3009            1      0.61%     85.45% # Bytes accessed per row activation
system.physmem.bytesPerActivate::3072-3073            1      0.61%     86.06% # Bytes accessed per row activation
system.physmem.bytesPerActivate::4480-4481            1      0.61%     86.67% # Bytes accessed per row activation
system.physmem.bytesPerActivate::5184-5185            1      0.61%     87.27% # Bytes accessed per row activation
system.physmem.bytesPerActivate::5824-5825            1      0.61%     87.88% # Bytes accessed per row activation
system.physmem.bytesPerActivate::7552-7553            1      0.61%     88.48% # Bytes accessed per row activation
system.physmem.bytesPerActivate::8128-8129            1      0.61%     89.09% # Bytes accessed per row activation
system.physmem.bytesPerActivate::8192-8193           18     10.91%    100.00% # Bytes accessed per row activation
system.physmem.bytesPerActivate::total            165                       # Bytes accessed per row activation
system.physmem.totQLat                        7058250                       # Total cycles spent in queuing delays
system.physmem.totMemAccLat                  78594500                       # Sum of mem lat for all requests
system.physmem.totBusLat                     18585000                       # Total cycles spent in databus access
system.physmem.totBankLat                    52951250                       # Total cycles spent in bank access
system.physmem.avgQLat                        1898.91                       # Average queueing delay per request
system.physmem.avgBankLat                    14245.70                       # Average bank access latency per request
system.physmem.avgBusLat                      5000.00                       # Average bus latency per request
system.physmem.avgMemAccLat                  21144.61                       # Average memory access latency
system.physmem.avgRdBW                           1.06                       # Average achieved read bandwidth in MB/s
system.physmem.avgWrBW                           0.00                       # Average achieved write bandwidth in MB/s
system.physmem.avgConsumedRdBW                   1.06                       # Average consumed read bandwidth in MB/s
system.physmem.avgConsumedWrBW                   0.00                       # Average consumed write bandwidth in MB/s
system.physmem.peakBW                        12800.00                       # Theoretical peak bandwidth in MB/s
system.physmem.busUtil                           0.01                       # Data bus utilization in percentage
system.physmem.avgRdQLen                         0.00                       # Average read queue length over time
system.physmem.avgWrQLen                         8.99                       # Average write queue length over time
system.physmem.readRowHits                       3552                       # Number of row buffer hits during reads
system.physmem.writeRowHits                         0                       # Number of row buffer hits during writes
system.physmem.readRowHitRate                   95.56                       # Row buffer hit rate for reads
system.physmem.writeRowHitRate                   0.00                       # Row buffer hit rate for writes
system.physmem.avgGap                     60195715.05                       # Average gap between requests
system.membus.throughput                      1063197                       # Throughput (bytes/s)
system.membus.trans_dist::ReadReq                1926                       # Transaction distribution
system.membus.trans_dist::ReadResp               1926                       # Transaction distribution
system.membus.trans_dist::Writeback                10                       # Transaction distribution
system.membus.trans_dist::ReadExReq              1791                       # Transaction distribution
system.membus.trans_dist::ReadExResp             1791                       # Transaction distribution
system.membus.pkt_count_system.l2.mem_side         7444                       # Packet count per connected master and slave (bytes)
system.membus.pkt_count                          7444                       # Packet count per connected master and slave (bytes)
system.membus.tot_pkt_size_system.l2.mem_side       238528                       # Cumulative packet size per connected master and slave (bytes)
system.membus.tot_pkt_size                     238528                       # Cumulative packet size per connected master and slave (bytes)
system.membus.data_through_bus                 238528                       # Total data (bytes)
system.membus.snoop_data_through_bus                0                       # Total snoop data (bytes)
system.membus.reqLayer0.occupancy             1903500                       # Layer occupancy (ticks)
system.membus.reqLayer0.utilization               0.0                       # Layer utilization (%)
system.membus.respLayer1.occupancy           17647500                       # Layer occupancy (ticks)
system.membus.respLayer1.utilization              0.0                       # Layer utilization (%)
system.switch_cpus.branchPred.lookups        23389525                       # Number of BP lookups
system.switch_cpus.branchPred.condPredicted     21873755                       # Number of conditional branches predicted
system.switch_cpus.branchPred.condIncorrect      1266420                       # Number of conditional branches incorrect
system.switch_cpus.branchPred.BTBLookups     23305834                       # Number of BTB lookups
system.switch_cpus.branchPred.BTBHits        23217968                       # Number of BTB hits
system.switch_cpus.branchPred.BTBCorrect            0                       # Number of correct BTB predictions (this stat may not work properly.
system.switch_cpus.branchPred.BTBHitPct     99.622987                       # BTB Hit Percentage
system.switch_cpus.branchPred.usedRAS           81969                       # Number of times the RAS was used to get a target.
system.switch_cpus.branchPred.RASInCorrect           83                       # Number of incorrect RAS predictions.
system.switch_cpus.dtb.fetch_hits                   0                       # ITB hits
system.switch_cpus.dtb.fetch_misses                 0                       # ITB misses
system.switch_cpus.dtb.fetch_acv                    0                       # ITB acv
system.switch_cpus.dtb.fetch_accesses               0                       # ITB accesses
system.switch_cpus.dtb.read_hits            332003681                       # DTB read hits
system.switch_cpus.dtb.read_misses                199                       # DTB read misses
system.switch_cpus.dtb.read_acv                     0                       # DTB read access violations
system.switch_cpus.dtb.read_accesses        332003880                       # DTB read accesses
system.switch_cpus.dtb.write_hits           133083806                       # DTB write hits
system.switch_cpus.dtb.write_misses              1421                       # DTB write misses
system.switch_cpus.dtb.write_acv                    0                       # DTB write access violations
system.switch_cpus.dtb.write_accesses       133085227                       # DTB write accesses
system.switch_cpus.dtb.data_hits            465087487                       # DTB hits
system.switch_cpus.dtb.data_misses               1620                       # DTB misses
system.switch_cpus.dtb.data_acv                     0                       # DTB access violations
system.switch_cpus.dtb.data_accesses        465089107                       # DTB accesses
system.switch_cpus.itb.fetch_hits            65665649                       # ITB hits
system.switch_cpus.itb.fetch_misses               126                       # ITB misses
system.switch_cpus.itb.fetch_acv                    0                       # ITB acv
system.switch_cpus.itb.fetch_accesses        65665775                       # ITB accesses
system.switch_cpus.itb.read_hits                    0                       # DTB read hits
system.switch_cpus.itb.read_misses                  0                       # DTB read misses
system.switch_cpus.itb.read_acv                     0                       # DTB read access violations
system.switch_cpus.itb.read_accesses                0                       # DTB read accesses
system.switch_cpus.itb.write_hits                   0                       # DTB write hits
system.switch_cpus.itb.write_misses                 0                       # DTB write misses
system.switch_cpus.itb.write_acv                    0                       # DTB write access violations
system.switch_cpus.itb.write_accesses               0                       # DTB write accesses
system.switch_cpus.itb.data_hits                    0                       # DTB hits
system.switch_cpus.itb.data_misses                  0                       # DTB misses
system.switch_cpus.itb.data_acv                     0                       # DTB access violations
system.switch_cpus.itb.data_accesses                0                       # DTB accesses
system.cpu.workload.num_syscalls                   18                       # Number of system calls
system.switch_cpus.numCycles                448699408                       # number of cpu cycles simulated
system.switch_cpus.numWorkItemsStarted              0                       # number of work items this cpu started
system.switch_cpus.numWorkItemsCompleted            0                       # number of work items this cpu completed
system.switch_cpus.fetch.icacheStallCycles     65765565                       # Number of cycles fetch is stalled on an Icache miss
system.switch_cpus.fetch.Insts              774883540                       # Number of instructions fetch has processed
system.switch_cpus.fetch.Branches            23389525                       # Number of branches that fetch encountered
system.switch_cpus.fetch.predictedBranches     23299937                       # Number of branches that fetch has predicted taken
system.switch_cpus.fetch.Cycles             107703262                       # Number of cycles fetch has run and was not squashing or blocked
system.switch_cpus.fetch.SquashCycles         9981126                       # Number of cycles fetch has spent squashing
system.switch_cpus.fetch.BlockedCycles      266370522                       # Number of cycles fetch has spent blocked
system.switch_cpus.fetch.MiscStallCycles           84                       # Number of cycles fetch has spent waiting on interrupts, or bad addresses, or out of MSHRs
system.switch_cpus.fetch.PendingTrapStallCycles         3369                       # Number of stall cycles due to pending traps
system.switch_cpus.fetch.IcacheWaitRetryStallCycles           17                       # Number of stall cycles due to full MSHR
system.switch_cpus.fetch.CacheLines          65665649                       # Number of cache lines fetched
system.switch_cpus.fetch.IcacheSquashes          8221                       # Number of outstanding Icache misses that were squashed
system.switch_cpus.fetch.rateDist::samples    448536355                       # Number of instructions fetched each cycle (Total)
system.switch_cpus.fetch.rateDist::mean      1.727582                       # Number of instructions fetched each cycle (Total)
system.switch_cpus.fetch.rateDist::stdev     3.138923                       # Number of instructions fetched each cycle (Total)
system.switch_cpus.fetch.rateDist::underflows            0      0.00%      0.00% # Number of instructions fetched each cycle (Total)
system.switch_cpus.fetch.rateDist::0        340833093     75.99%     75.99% # Number of instructions fetched each cycle (Total)
system.switch_cpus.fetch.rateDist::1          1350245      0.30%     76.29% # Number of instructions fetched each cycle (Total)
system.switch_cpus.fetch.rateDist::2          1283121      0.29%     76.57% # Number of instructions fetched each cycle (Total)
system.switch_cpus.fetch.rateDist::3             8968      0.00%     76.58% # Number of instructions fetched each cycle (Total)
system.switch_cpus.fetch.rateDist::4          2625543      0.59%     77.16% # Number of instructions fetched each cycle (Total)
system.switch_cpus.fetch.rateDist::5           161093      0.04%     77.20% # Number of instructions fetched each cycle (Total)
system.switch_cpus.fetch.rateDist::6         19152096      4.27%     81.47% # Number of instructions fetched each cycle (Total)
system.switch_cpus.fetch.rateDist::7         20257632      4.52%     85.98% # Number of instructions fetched each cycle (Total)
system.switch_cpus.fetch.rateDist::8         62864564     14.02%    100.00% # Number of instructions fetched each cycle (Total)
system.switch_cpus.fetch.rateDist::overflows            0      0.00%    100.00% # Number of instructions fetched each cycle (Total)
system.switch_cpus.fetch.rateDist::min_value            0                       # Number of instructions fetched each cycle (Total)
system.switch_cpus.fetch.rateDist::max_value            8                       # Number of instructions fetched each cycle (Total)
system.switch_cpus.fetch.rateDist::total    448536355                       # Number of instructions fetched each cycle (Total)
system.switch_cpus.fetch.branchRate          0.052127                       # Number of branch fetches per cycle
system.switch_cpus.fetch.rate                1.726955                       # Number of inst fetches per cycle
system.switch_cpus.decode.IdleCycles        103212140                       # Number of cycles decode is idle
system.switch_cpus.decode.BlockedCycles     230113287                       # Number of cycles decode is blocked
system.switch_cpus.decode.RunCycles          40563895                       # Number of cycles decode is running
system.switch_cpus.decode.UnblockCycles      65953808                       # Number of cycles decode is unblocking
system.switch_cpus.decode.SquashCycles        8693224                       # Number of cycles decode is squashing
system.switch_cpus.decode.BranchResolved      1433540                       # Number of times decode resolved a branch
system.switch_cpus.decode.BranchMispred           327                       # Number of times decode detected a branch misprediction
system.switch_cpus.decode.DecodedInsts      765405880                       # Number of instructions handled by decode
system.switch_cpus.decode.SquashedInsts          1012                       # Number of squashed instructions handled by decode
system.switch_cpus.rename.SquashCycles        8693224                       # Number of cycles rename is squashing
system.switch_cpus.rename.IdleCycles        106944599                       # Number of cycles rename is idle
system.switch_cpus.rename.BlockCycles        41641659                       # Number of cycles rename is blocking
system.switch_cpus.rename.serializeStallCycles      5188751                       # count of cycles rename stalled for serializing inst
system.switch_cpus.rename.RunCycles         102908379                       # Number of cycles rename is running
system.switch_cpus.rename.UnblockCycles     183159742                       # Number of cycles rename is unblocking
system.switch_cpus.rename.RenamedInsts      760004235                       # Number of instructions processed by rename
system.switch_cpus.rename.ROBFullEvents            20                       # Number of times rename has blocked due to ROB full
system.switch_cpus.rename.IQFullEvents          11342                       # Number of times rename has blocked due to IQ full
system.switch_cpus.rename.LSQFullEvents     181737623                       # Number of times rename has blocked due to LSQ full
system.switch_cpus.rename.RenamedOperands    593404665                       # Number of destination operands rename has renamed
system.switch_cpus.rename.RenameLookups    1085461198                       # Number of register rename lookups that rename has made
system.switch_cpus.rename.int_rename_lookups   1083850943                       # Number of integer rename lookups
system.switch_cpus.rename.fp_rename_lookups      1610255                       # Number of floating rename lookups
system.switch_cpus.rename.CommittedMaps     538458517                       # Number of HB maps that are committed
system.switch_cpus.rename.UndoneMaps         54946148                       # Number of HB maps that are undone due to squashing
system.switch_cpus.rename.serializingInsts       318143                       # count of serializing insts renamed
system.switch_cpus.rename.tempSerializingInsts          134                       # count of temporary serializing insts renamed
system.switch_cpus.rename.skidInsts         301845535                       # count of insts added to the skid buffer
system.switch_cpus.memDep0.insertedLoads    346801964                       # Number of loads inserted to the mem dependence unit.
system.switch_cpus.memDep0.insertedStores    141860785                       # Number of stores inserted to the mem dependence unit.
system.switch_cpus.memDep0.conflictingLoads    193403293                       # Number of conflicting loads.
system.switch_cpus.memDep0.conflictingStores     95554531                       # Number of conflicting stores.
system.switch_cpus.iq.iqInstsAdded          756876235                       # Number of instructions added to the IQ (excludes non-spec)
system.switch_cpus.iq.iqNonSpecInstsAdded          228                       # Number of non-speculative instructions added to the IQ
system.switch_cpus.iq.iqInstsIssued         720945759                       # Number of instructions issued
system.switch_cpus.iq.iqSquashedInstsIssued         2670                       # Number of squashed instructions issued
system.switch_cpus.iq.iqSquashedInstsExamined     66967136                       # Number of squashed instructions iterated over during squash; mainly for profiling
system.switch_cpus.iq.iqSquashedOperandsExamined     58710616                       # Number of squashed operands that are examined and possibly removed from graph
system.switch_cpus.iq.iqSquashedNonSpecRemoved           51                       # Number of squashed non-spec instructions that were removed
system.switch_cpus.iq.issued_per_cycle::samples    448536355                       # Number of insts issued each cycle
system.switch_cpus.iq.issued_per_cycle::mean     1.607330                       # Number of insts issued each cycle
system.switch_cpus.iq.issued_per_cycle::stdev     1.239813                       # Number of insts issued each cycle
system.switch_cpus.iq.issued_per_cycle::underflows            0      0.00%      0.00% # Number of insts issued each cycle
system.switch_cpus.iq.issued_per_cycle::0     97882808     21.82%     21.82% # Number of insts issued each cycle
system.switch_cpus.iq.issued_per_cycle::1    124647640     27.79%     49.61% # Number of insts issued each cycle
system.switch_cpus.iq.issued_per_cycle::2    127581217     28.44%     78.06% # Number of insts issued each cycle
system.switch_cpus.iq.issued_per_cycle::3     55497845     12.37%     90.43% # Number of insts issued each cycle
system.switch_cpus.iq.issued_per_cycle::4     40181575      8.96%     99.39% # Number of insts issued each cycle
system.switch_cpus.iq.issued_per_cycle::5      2644726      0.59%     99.98% # Number of insts issued each cycle
system.switch_cpus.iq.issued_per_cycle::6        14553      0.00%     99.98% # Number of insts issued each cycle
system.switch_cpus.iq.issued_per_cycle::7        83026      0.02%    100.00% # Number of insts issued each cycle
system.switch_cpus.iq.issued_per_cycle::8         2965      0.00%    100.00% # Number of insts issued each cycle
system.switch_cpus.iq.issued_per_cycle::overflows            0      0.00%    100.00% # Number of insts issued each cycle
system.switch_cpus.iq.issued_per_cycle::min_value            0                       # Number of insts issued each cycle
system.switch_cpus.iq.issued_per_cycle::max_value            8                       # Number of insts issued each cycle
system.switch_cpus.iq.issued_per_cycle::total    448536355                       # Number of insts issued each cycle
system.switch_cpus.iq.fu_full::No_OpClass            0      0.00%      0.00% # attempts to use FU when none available
system.switch_cpus.iq.fu_full::IntAlu            4380      0.40%      0.40% # attempts to use FU when none available
system.switch_cpus.iq.fu_full::IntMult              0      0.00%      0.40% # attempts to use FU when none available
system.switch_cpus.iq.fu_full::IntDiv               0      0.00%      0.40% # attempts to use FU when none available
system.switch_cpus.iq.fu_full::FloatAdd             0      0.00%      0.40% # attempts to use FU when none available
system.switch_cpus.iq.fu_full::FloatCmp             0      0.00%      0.40% # attempts to use FU when none available
system.switch_cpus.iq.fu_full::FloatCvt             0      0.00%      0.40% # attempts to use FU when none available
system.switch_cpus.iq.fu_full::FloatMult          197      0.02%      0.41% # attempts to use FU when none available
system.switch_cpus.iq.fu_full::FloatDiv             6      0.00%      0.42% # attempts to use FU when none available
system.switch_cpus.iq.fu_full::FloatSqrt            0      0.00%      0.42% # attempts to use FU when none available
system.switch_cpus.iq.fu_full::SimdAdd              0      0.00%      0.42% # attempts to use FU when none available
system.switch_cpus.iq.fu_full::SimdAddAcc            0      0.00%      0.42% # attempts to use FU when none available
system.switch_cpus.iq.fu_full::SimdAlu              0      0.00%      0.42% # attempts to use FU when none available
system.switch_cpus.iq.fu_full::SimdCmp              0      0.00%      0.42% # attempts to use FU when none available
system.switch_cpus.iq.fu_full::SimdCvt              0      0.00%      0.42% # attempts to use FU when none available
system.switch_cpus.iq.fu_full::SimdMisc             0      0.00%      0.42% # attempts to use FU when none available
system.switch_cpus.iq.fu_full::SimdMult             0      0.00%      0.42% # attempts to use FU when none available
system.switch_cpus.iq.fu_full::SimdMultAcc            0      0.00%      0.42% # attempts to use FU when none available
system.switch_cpus.iq.fu_full::SimdShift            0      0.00%      0.42% # attempts to use FU when none available
system.switch_cpus.iq.fu_full::SimdShiftAcc            0      0.00%      0.42% # attempts to use FU when none available
system.switch_cpus.iq.fu_full::SimdSqrt             0      0.00%      0.42% # attempts to use FU when none available
system.switch_cpus.iq.fu_full::SimdFloatAdd            0      0.00%      0.42% # attempts to use FU when none available
system.switch_cpus.iq.fu_full::SimdFloatAlu            0      0.00%      0.42% # attempts to use FU when none available
system.switch_cpus.iq.fu_full::SimdFloatCmp            0      0.00%      0.42% # attempts to use FU when none available
system.switch_cpus.iq.fu_full::SimdFloatCvt            0      0.00%      0.42% # attempts to use FU when none available
system.switch_cpus.iq.fu_full::SimdFloatDiv            0      0.00%      0.42% # attempts to use FU when none available
system.switch_cpus.iq.fu_full::SimdFloatMisc            0      0.00%      0.42% # attempts to use FU when none available
system.switch_cpus.iq.fu_full::SimdFloatMult            0      0.00%      0.42% # attempts to use FU when none available
system.switch_cpus.iq.fu_full::SimdFloatMultAcc            0      0.00%      0.42% # attempts to use FU when none available
system.switch_cpus.iq.fu_full::SimdFloatSqrt            0      0.00%      0.42% # attempts to use FU when none available
system.switch_cpus.iq.fu_full::MemRead          88872      8.05%      8.47% # attempts to use FU when none available
system.switch_cpus.iq.fu_full::MemWrite       1010366     91.53%    100.00% # attempts to use FU when none available
system.switch_cpus.iq.fu_full::IprAccess            0      0.00%    100.00% # attempts to use FU when none available
system.switch_cpus.iq.fu_full::InstPrefetch            0      0.00%    100.00% # attempts to use FU when none available
system.switch_cpus.iq.FU_type_0::No_OpClass       158117      0.02%      0.02% # Type of FU issued
system.switch_cpus.iq.FU_type_0::IntAlu     216605850     30.04%     30.07% # Type of FU issued
system.switch_cpus.iq.FU_type_0::IntMult     35742875      4.96%     35.02% # Type of FU issued
system.switch_cpus.iq.FU_type_0::IntDiv             0      0.00%     35.02% # Type of FU issued
system.switch_cpus.iq.FU_type_0::FloatAdd       421289      0.06%     35.08% # Type of FU issued
system.switch_cpus.iq.FU_type_0::FloatCmp         2221      0.00%     35.08% # Type of FU issued
system.switch_cpus.iq.FU_type_0::FloatCvt       242902      0.03%     35.12% # Type of FU issued
system.switch_cpus.iq.FU_type_0::FloatMult        11612      0.00%     35.12% # Type of FU issued
system.switch_cpus.iq.FU_type_0::FloatDiv        79803      0.01%     35.13% # Type of FU issued
system.switch_cpus.iq.FU_type_0::FloatSqrt            0      0.00%     35.13% # Type of FU issued
system.switch_cpus.iq.FU_type_0::SimdAdd            0      0.00%     35.13% # Type of FU issued
system.switch_cpus.iq.FU_type_0::SimdAddAcc            0      0.00%     35.13% # Type of FU issued
system.switch_cpus.iq.FU_type_0::SimdAlu            0      0.00%     35.13% # Type of FU issued
system.switch_cpus.iq.FU_type_0::SimdCmp            0      0.00%     35.13% # Type of FU issued
system.switch_cpus.iq.FU_type_0::SimdCvt            0      0.00%     35.13% # Type of FU issued
system.switch_cpus.iq.FU_type_0::SimdMisc            0      0.00%     35.13% # Type of FU issued
system.switch_cpus.iq.FU_type_0::SimdMult            0      0.00%     35.13% # Type of FU issued
system.switch_cpus.iq.FU_type_0::SimdMultAcc            0      0.00%     35.13% # Type of FU issued
system.switch_cpus.iq.FU_type_0::SimdShift            0      0.00%     35.13% # Type of FU issued
system.switch_cpus.iq.FU_type_0::SimdShiftAcc            0      0.00%     35.13% # Type of FU issued
system.switch_cpus.iq.FU_type_0::SimdSqrt            0      0.00%     35.13% # Type of FU issued
system.switch_cpus.iq.FU_type_0::SimdFloatAdd            0      0.00%     35.13% # Type of FU issued
system.switch_cpus.iq.FU_type_0::SimdFloatAlu            0      0.00%     35.13% # Type of FU issued
system.switch_cpus.iq.FU_type_0::SimdFloatCmp            0      0.00%     35.13% # Type of FU issued
system.switch_cpus.iq.FU_type_0::SimdFloatCvt            0      0.00%     35.13% # Type of FU issued
system.switch_cpus.iq.FU_type_0::SimdFloatDiv            0      0.00%     35.13% # Type of FU issued
system.switch_cpus.iq.FU_type_0::SimdFloatMisc            0      0.00%     35.13% # Type of FU issued
system.switch_cpus.iq.FU_type_0::SimdFloatMult            0      0.00%     35.13% # Type of FU issued
system.switch_cpus.iq.FU_type_0::SimdFloatMultAcc            0      0.00%     35.13% # Type of FU issued
system.switch_cpus.iq.FU_type_0::SimdFloatSqrt            0      0.00%     35.13% # Type of FU issued
system.switch_cpus.iq.FU_type_0::MemRead    334512459     46.40%     81.53% # Type of FU issued
system.switch_cpus.iq.FU_type_0::MemWrite    133168631     18.47%    100.00% # Type of FU issued
system.switch_cpus.iq.FU_type_0::IprAccess            0      0.00%    100.00% # Type of FU issued
system.switch_cpus.iq.FU_type_0::InstPrefetch            0      0.00%    100.00% # Type of FU issued
system.switch_cpus.iq.FU_type_0::total      720945759                       # Type of FU issued
system.switch_cpus.iq.rate                   1.606746                       # Inst issue rate
system.switch_cpus.iq.fu_busy_cnt             1103821                       # FU busy when requested
system.switch_cpus.iq.fu_busy_rate           0.001531                       # FU busy rate (busy events/executed inst)
system.switch_cpus.iq.int_inst_queue_reads   1889031194                       # Number of integer instruction queue reads
system.switch_cpus.iq.int_inst_queue_writes    822610480                       # Number of integer instruction queue writes
system.switch_cpus.iq.int_inst_queue_wakeup_accesses    716875498                       # Number of integer instruction queue wakeup accesses
system.switch_cpus.iq.fp_inst_queue_reads      2503170                       # Number of floating instruction queue reads
system.switch_cpus.iq.fp_inst_queue_writes      1254514                       # Number of floating instruction queue writes
system.switch_cpus.iq.fp_inst_queue_wakeup_accesses      1251367                       # Number of floating instruction queue wakeup accesses
system.switch_cpus.iq.int_alu_accesses      720639777                       # Number of integer alu accesses
system.switch_cpus.iq.fp_alu_accesses         1251686                       # Number of floating point alu accesses
system.switch_cpus.iew.lsq.thread0.forwLoads    132546214                       # Number of loads that had data forwarded from stores
system.switch_cpus.iew.lsq.thread0.invAddrLoads            0                       # Number of loads ignored due to an invalid address
system.switch_cpus.iew.lsq.thread0.squashedLoads     32128597                       # Number of loads squashed
system.switch_cpus.iew.lsq.thread0.ignoredResponses          939                       # Number of memory responses ignored because the instruction is squashed
system.switch_cpus.iew.lsq.thread0.memOrderViolation        21639                       # Number of memory ordering violations
system.switch_cpus.iew.lsq.thread0.squashedStores     12417565                       # Number of stores squashed
system.switch_cpus.iew.lsq.thread0.invAddrSwpfs            0                       # Number of software prefetches ignored due to an invalid address
system.switch_cpus.iew.lsq.thread0.blockedLoads            0                       # Number of blocked loads due to partial load-store forwarding
system.switch_cpus.iew.lsq.thread0.rescheduledLoads            1                       # Number of loads that were rescheduled
system.switch_cpus.iew.lsq.thread0.cacheBlocked         1213                       # Number of times an access to memory failed due to the cache being blocked
system.switch_cpus.iew.iewIdleCycles                0                       # Number of cycles IEW is idle
system.switch_cpus.iew.iewSquashCycles        8693224                       # Number of cycles IEW is squashing
system.switch_cpus.iew.iewBlockCycles         4663337                       # Number of cycles IEW is blocking
system.switch_cpus.iew.iewUnblockCycles        857696                       # Number of cycles IEW is unblocking
system.switch_cpus.iew.iewDispatchedInsts    756967939                       # Number of instructions dispatched to IQ
system.switch_cpus.iew.iewDispSquashedInsts         2998                       # Number of squashed instructions skipped by dispatch
system.switch_cpus.iew.iewDispLoadInsts     346801964                       # Number of dispatched load instructions
system.switch_cpus.iew.iewDispStoreInsts    141860785                       # Number of dispatched store instructions
system.switch_cpus.iew.iewDispNonSpecInsts          138                       # Number of dispatched non-speculative instructions
system.switch_cpus.iew.iewIQFullEvents           2291                       # Number of times the IQ has become full, causing a stall
system.switch_cpus.iew.iewLSQFullEvents        705406                       # Number of times the LSQ has become full, causing a stall
system.switch_cpus.iew.memOrderViolationEvents        21639                       # Number of memory order violations
system.switch_cpus.iew.predictedTakenIncorrect      1265762                       # Number of branches that were predicted taken incorrectly
system.switch_cpus.iew.predictedNotTakenIncorrect          583                       # Number of branches that were predicted not taken incorrectly
system.switch_cpus.iew.branchMispredicts      1266345                       # Number of branch mispredicts detected at execute
system.switch_cpus.iew.iewExecutedInsts     718337021                       # Number of executed instructions
system.switch_cpus.iew.iewExecLoadInsts     332003884                       # Number of load instructions executed
system.switch_cpus.iew.iewExecSquashedInsts      2608738                       # Number of squashed instructions skipped in execute
system.switch_cpus.iew.exec_swp                     0                       # number of swp insts executed
system.switch_cpus.iew.exec_nop                 91476                       # number of nop insts executed
system.switch_cpus.iew.exec_refs            465089116                       # number of memory reference insts executed
system.switch_cpus.iew.exec_branches         22018868                       # Number of branches executed
system.switch_cpus.iew.exec_stores          133085232                       # Number of stores executed
system.switch_cpus.iew.exec_rate             1.600932                       # Inst execution rate
system.switch_cpus.iew.wb_sent              718137918                       # cumulative count of insts sent to commit
system.switch_cpus.iew.wb_count             718126865                       # cumulative count of insts written-back
system.switch_cpus.iew.wb_producers         546448123                       # num instructions producing a value
system.switch_cpus.iew.wb_consumers         546774139                       # num instructions consuming a value
system.switch_cpus.iew.wb_penalized                 0                       # number of instrctions required to write to 'other' IQ
system.switch_cpus.iew.wb_rate               1.600463                       # insts written-back per cycle
system.switch_cpus.iew.wb_fanout             0.999404                       # average fanout of values written-back
system.switch_cpus.iew.wb_penalized_rate            0                       # fraction of instructions written-back that wrote to 'other' IQ
system.switch_cpus.commit.commitSquashedInsts     66971304                       # The number of squashed insts skipped by commit
system.switch_cpus.commit.commitNonSpecStalls          177                       # The number of times commit has been forced to stall to communicate backwards
system.switch_cpus.commit.branchMispredicts      1266108                       # The number of times a branch was mispredicted
system.switch_cpus.commit.committed_per_cycle::samples    439843131                       # Number of insts commited each cycle
system.switch_cpus.commit.committed_per_cycle::mean     1.568732                       # Number of insts commited each cycle
system.switch_cpus.commit.committed_per_cycle::stdev     2.301150                       # Number of insts commited each cycle
system.switch_cpus.commit.committed_per_cycle::underflows            0      0.00%      0.00% # Number of insts commited each cycle
system.switch_cpus.commit.committed_per_cycle::0    186886653     42.49%     42.49% # Number of insts commited each cycle
system.switch_cpus.commit.committed_per_cycle::1    138297556     31.44%     73.93% # Number of insts commited each cycle
system.switch_cpus.commit.committed_per_cycle::2     40541126      9.22%     83.15% # Number of insts commited each cycle
system.switch_cpus.commit.committed_per_cycle::3      2677797      0.61%     83.76% # Number of insts commited each cycle
system.switch_cpus.commit.committed_per_cycle::4        11598      0.00%     83.76% # Number of insts commited each cycle
system.switch_cpus.commit.committed_per_cycle::5     18915051      4.30%     88.06% # Number of insts commited each cycle
system.switch_cpus.commit.committed_per_cycle::6     17610717      4.00%     92.06% # Number of insts commited each cycle
system.switch_cpus.commit.committed_per_cycle::7     16924109      3.85%     95.91% # Number of insts commited each cycle
system.switch_cpus.commit.committed_per_cycle::8     17978524      4.09%    100.00% # Number of insts commited each cycle
system.switch_cpus.commit.committed_per_cycle::overflows            0      0.00%    100.00% # Number of insts commited each cycle
system.switch_cpus.commit.committed_per_cycle::min_value            0                       # Number of insts commited each cycle
system.switch_cpus.commit.committed_per_cycle::max_value            8                       # Number of insts commited each cycle
system.switch_cpus.commit.committed_per_cycle::total    439843131                       # Number of insts commited each cycle
system.switch_cpus.commit.committedInsts    689996103                       # Number of instructions committed
system.switch_cpus.commit.committedOps      689996103                       # Number of ops (including micro ops) committed
system.switch_cpus.commit.swp_count                 0                       # Number of s/w prefetches committed
system.switch_cpus.commit.refs              444116587                       # Number of memory references committed
system.switch_cpus.commit.loads             314673367                       # Number of loads committed
system.switch_cpus.commit.membars                  77                       # Number of memory barriers committed
system.switch_cpus.commit.branches           21928905                       # Number of branches committed
system.switch_cpus.commit.fp_insts            1249740                       # Number of committed floating point instructions.
system.switch_cpus.commit.int_insts         687968169                       # Number of committed integer instructions.
system.switch_cpus.commit.function_calls        81680                       # Number of function calls committed.
system.switch_cpus.commit.bw_lim_events      17978524                       # number cycles where commit BW limit reached
system.switch_cpus.commit.bw_limited                0                       # number of insts not committed due to BW limits
system.switch_cpus.rob.rob_reads           1178830506                       # The number of ROB reads
system.switch_cpus.rob.rob_writes          1522628871                       # The number of ROB writes
system.switch_cpus.timesIdled                  112339                       # Number of times that the entire CPU went into an idle state and unscheduled itself
system.switch_cpus.idleCycles                  163053                       # Total number of cycles that the CPU has spent unscheduled due to idling
system.switch_cpus.committedInsts           689907100                       # Number of Instructions Simulated
system.switch_cpus.committedOps             689907100                       # Number of Ops (including micro ops) Simulated
system.switch_cpus.committedInsts_total     689907100                       # Number of Instructions Simulated
system.switch_cpus.cpi                       0.650377                       # CPI: Cycles Per Instruction
system.switch_cpus.cpi_total                 0.650377                       # CPI: Total CPI of All Threads
system.switch_cpus.ipc                       1.537571                       # IPC: Instructions Per Cycle
system.switch_cpus.ipc_total                 1.537571                       # IPC: Total IPC of All Threads
system.switch_cpus.int_regfile_reads       1021414993                       # number of integer regfile reads
system.switch_cpus.int_regfile_writes       562033602                       # number of integer regfile writes
system.switch_cpus.fp_regfile_reads            874880                       # number of floating regfile reads
system.switch_cpus.fp_regfile_writes           845923                       # number of floating regfile writes
system.switch_cpus.misc_regfile_reads          181214                       # number of misc regfile reads
system.switch_cpus.misc_regfile_writes          79211                       # number of misc regfile writes
system.l2.tags.replacements                        11                       # number of replacements
system.l2.tags.tagsinuse                  3689.856696                       # Cycle average of tags in use
system.l2.tags.total_refs                     1140003                       # Total number of references to valid blocks.
system.l2.tags.sampled_refs                      3973                       # Sample count of references to valid blocks.
system.l2.tags.avg_refs                    286.937579                       # Average number of references to valid blocks.
system.l2.tags.warmup_cycle                         0                       # Cycle when the warmup percentage was hit.
system.l2.tags.occ_blocks::writebacks     2196.297874                       # Average occupied blocks per requestor
system.l2.tags.occ_blocks::switch_cpus.inst   378.935915                       # Average occupied blocks per requestor
system.l2.tags.occ_blocks::switch_cpus.data   878.622689                       # Average occupied blocks per requestor
system.l2.tags.occ_blocks::cpu.inst        188.000096                       # Average occupied blocks per requestor
system.l2.tags.occ_blocks::cpu.data         48.000122                       # Average occupied blocks per requestor
system.l2.tags.occ_percent::writebacks       0.268103                       # Average percentage of cache occupancy
system.l2.tags.occ_percent::switch_cpus.inst     0.046257                       # Average percentage of cache occupancy
system.l2.tags.occ_percent::switch_cpus.data     0.107254                       # Average percentage of cache occupancy
system.l2.tags.occ_percent::cpu.inst         0.022949                       # Average percentage of cache occupancy
system.l2.tags.occ_percent::cpu.data         0.005859                       # Average percentage of cache occupancy
system.l2.tags.occ_percent::total            0.450422                       # Average percentage of cache occupancy
system.l2.ReadReq_hits::switch_cpus.inst           55                       # number of ReadReq hits
system.l2.ReadReq_hits::switch_cpus.data       547443                       # number of ReadReq hits
system.l2.ReadReq_hits::total                  547498                       # number of ReadReq hits
system.l2.Writeback_hits::writebacks           594285                       # number of Writeback hits
system.l2.Writeback_hits::total                594285                       # number of Writeback hits
system.l2.ReadExReq_hits::switch_cpus.data        45623                       # number of ReadExReq hits
system.l2.ReadExReq_hits::total                 45623                       # number of ReadExReq hits
system.l2.demand_hits::switch_cpus.inst            55                       # number of demand (read+write) hits
system.l2.demand_hits::switch_cpus.data        593066                       # number of demand (read+write) hits
system.l2.demand_hits::total                   593121                       # number of demand (read+write) hits
system.l2.overall_hits::switch_cpus.inst           55                       # number of overall hits
system.l2.overall_hits::switch_cpus.data       593066                       # number of overall hits
system.l2.overall_hits::total                  593121                       # number of overall hits
system.l2.ReadReq_misses::switch_cpus.inst          536                       # number of ReadReq misses
system.l2.ReadReq_misses::switch_cpus.data         1391                       # number of ReadReq misses
system.l2.ReadReq_misses::total                  1927                       # number of ReadReq misses
system.l2.ReadExReq_misses::switch_cpus.data         1791                       # number of ReadExReq misses
system.l2.ReadExReq_misses::total                1791                       # number of ReadExReq misses
system.l2.demand_misses::switch_cpus.inst          536                       # number of demand (read+write) misses
system.l2.demand_misses::switch_cpus.data         3182                       # number of demand (read+write) misses
system.l2.demand_misses::total                   3718                       # number of demand (read+write) misses
system.l2.overall_misses::switch_cpus.inst          536                       # number of overall misses
system.l2.overall_misses::switch_cpus.data         3182                       # number of overall misses
system.l2.overall_misses::total                  3718                       # number of overall misses
system.l2.ReadReq_miss_latency::switch_cpus.inst     35053500                       # number of ReadReq miss cycles
system.l2.ReadReq_miss_latency::switch_cpus.data     85098500                       # number of ReadReq miss cycles
system.l2.ReadReq_miss_latency::total       120152000                       # number of ReadReq miss cycles
system.l2.ReadExReq_miss_latency::switch_cpus.data    112681500                       # number of ReadExReq miss cycles
system.l2.ReadExReq_miss_latency::total     112681500                       # number of ReadExReq miss cycles
system.l2.demand_miss_latency::switch_cpus.inst     35053500                       # number of demand (read+write) miss cycles
system.l2.demand_miss_latency::switch_cpus.data    197780000                       # number of demand (read+write) miss cycles
system.l2.demand_miss_latency::total        232833500                       # number of demand (read+write) miss cycles
system.l2.overall_miss_latency::switch_cpus.inst     35053500                       # number of overall miss cycles
system.l2.overall_miss_latency::switch_cpus.data    197780000                       # number of overall miss cycles
system.l2.overall_miss_latency::total       232833500                       # number of overall miss cycles
system.l2.ReadReq_accesses::switch_cpus.inst          591                       # number of ReadReq accesses(hits+misses)
system.l2.ReadReq_accesses::switch_cpus.data       548834                       # number of ReadReq accesses(hits+misses)
system.l2.ReadReq_accesses::total              549425                       # number of ReadReq accesses(hits+misses)
system.l2.Writeback_accesses::writebacks       594285                       # number of Writeback accesses(hits+misses)
system.l2.Writeback_accesses::total            594285                       # number of Writeback accesses(hits+misses)
system.l2.ReadExReq_accesses::switch_cpus.data        47414                       # number of ReadExReq accesses(hits+misses)
system.l2.ReadExReq_accesses::total             47414                       # number of ReadExReq accesses(hits+misses)
system.l2.demand_accesses::switch_cpus.inst          591                       # number of demand (read+write) accesses
system.l2.demand_accesses::switch_cpus.data       596248                       # number of demand (read+write) accesses
system.l2.demand_accesses::total               596839                       # number of demand (read+write) accesses
system.l2.overall_accesses::switch_cpus.inst          591                       # number of overall (read+write) accesses
system.l2.overall_accesses::switch_cpus.data       596248                       # number of overall (read+write) accesses
system.l2.overall_accesses::total              596839                       # number of overall (read+write) accesses
system.l2.ReadReq_miss_rate::switch_cpus.inst     0.906937                       # miss rate for ReadReq accesses
system.l2.ReadReq_miss_rate::switch_cpus.data     0.002534                       # miss rate for ReadReq accesses
system.l2.ReadReq_miss_rate::total           0.003507                       # miss rate for ReadReq accesses
system.l2.ReadExReq_miss_rate::switch_cpus.data     0.037774                       # miss rate for ReadExReq accesses
system.l2.ReadExReq_miss_rate::total         0.037774                       # miss rate for ReadExReq accesses
system.l2.demand_miss_rate::switch_cpus.inst     0.906937                       # miss rate for demand accesses
system.l2.demand_miss_rate::switch_cpus.data     0.005337                       # miss rate for demand accesses
system.l2.demand_miss_rate::total            0.006229                       # miss rate for demand accesses
system.l2.overall_miss_rate::switch_cpus.inst     0.906937                       # miss rate for overall accesses
system.l2.overall_miss_rate::switch_cpus.data     0.005337                       # miss rate for overall accesses
system.l2.overall_miss_rate::total           0.006229                       # miss rate for overall accesses
system.l2.ReadReq_avg_miss_latency::switch_cpus.inst 65398.320896                       # average ReadReq miss latency
system.l2.ReadReq_avg_miss_latency::switch_cpus.data 61177.929547                       # average ReadReq miss latency
system.l2.ReadReq_avg_miss_latency::total 62351.842242                       # average ReadReq miss latency
system.l2.ReadExReq_avg_miss_latency::switch_cpus.data 62915.410385                       # average ReadExReq miss latency
system.l2.ReadExReq_avg_miss_latency::total 62915.410385                       # average ReadExReq miss latency
system.l2.demand_avg_miss_latency::switch_cpus.inst 65398.320896                       # average overall miss latency
system.l2.demand_avg_miss_latency::switch_cpus.data 62155.876807                       # average overall miss latency
system.l2.demand_avg_miss_latency::total 62623.318989                       # average overall miss latency
system.l2.overall_avg_miss_latency::switch_cpus.inst 65398.320896                       # average overall miss latency
system.l2.overall_avg_miss_latency::switch_cpus.data 62155.876807                       # average overall miss latency
system.l2.overall_avg_miss_latency::total 62623.318989                       # average overall miss latency
system.l2.blocked_cycles::no_mshrs                  0                       # number of cycles access was blocked
system.l2.blocked_cycles::no_targets                0                       # number of cycles access was blocked
system.l2.blocked::no_mshrs                         0                       # number of cycles access was blocked
system.l2.blocked::no_targets                       0                       # number of cycles access was blocked
system.l2.avg_blocked_cycles::no_mshrs            nan                       # average number of cycles each access was blocked
system.l2.avg_blocked_cycles::no_targets          nan                       # average number of cycles each access was blocked
system.l2.fast_writes                               0                       # number of fast writes performed
system.l2.cache_copies                              0                       # number of cache copies performed
system.l2.writebacks::writebacks                   10                       # number of writebacks
system.l2.writebacks::total                        10                       # number of writebacks
system.l2.ReadReq_mshr_misses::switch_cpus.inst          536                       # number of ReadReq MSHR misses
system.l2.ReadReq_mshr_misses::switch_cpus.data         1391                       # number of ReadReq MSHR misses
system.l2.ReadReq_mshr_misses::total             1927                       # number of ReadReq MSHR misses
system.l2.ReadExReq_mshr_misses::switch_cpus.data         1791                       # number of ReadExReq MSHR misses
system.l2.ReadExReq_mshr_misses::total           1791                       # number of ReadExReq MSHR misses
system.l2.demand_mshr_misses::switch_cpus.inst          536                       # number of demand (read+write) MSHR misses
system.l2.demand_mshr_misses::switch_cpus.data         3182                       # number of demand (read+write) MSHR misses
system.l2.demand_mshr_misses::total              3718                       # number of demand (read+write) MSHR misses
system.l2.overall_mshr_misses::switch_cpus.inst          536                       # number of overall MSHR misses
system.l2.overall_mshr_misses::switch_cpus.data         3182                       # number of overall MSHR misses
system.l2.overall_mshr_misses::total             3718                       # number of overall MSHR misses
system.l2.ReadReq_mshr_miss_latency::switch_cpus.inst     28903500                       # number of ReadReq MSHR miss cycles
system.l2.ReadReq_mshr_miss_latency::switch_cpus.data     69109500                       # number of ReadReq MSHR miss cycles
system.l2.ReadReq_mshr_miss_latency::total     98013000                       # number of ReadReq MSHR miss cycles
system.l2.ReadExReq_mshr_miss_latency::switch_cpus.data     92091500                       # number of ReadExReq MSHR miss cycles
system.l2.ReadExReq_mshr_miss_latency::total     92091500                       # number of ReadExReq MSHR miss cycles
system.l2.demand_mshr_miss_latency::switch_cpus.inst     28903500                       # number of demand (read+write) MSHR miss cycles
system.l2.demand_mshr_miss_latency::switch_cpus.data    161201000                       # number of demand (read+write) MSHR miss cycles
system.l2.demand_mshr_miss_latency::total    190104500                       # number of demand (read+write) MSHR miss cycles
system.l2.overall_mshr_miss_latency::switch_cpus.inst     28903500                       # number of overall MSHR miss cycles
system.l2.overall_mshr_miss_latency::switch_cpus.data    161201000                       # number of overall MSHR miss cycles
system.l2.overall_mshr_miss_latency::total    190104500                       # number of overall MSHR miss cycles
system.l2.ReadReq_mshr_miss_rate::switch_cpus.inst     0.906937                       # mshr miss rate for ReadReq accesses
system.l2.ReadReq_mshr_miss_rate::switch_cpus.data     0.002534                       # mshr miss rate for ReadReq accesses
system.l2.ReadReq_mshr_miss_rate::total      0.003507                       # mshr miss rate for ReadReq accesses
system.l2.ReadExReq_mshr_miss_rate::switch_cpus.data     0.037774                       # mshr miss rate for ReadExReq accesses
system.l2.ReadExReq_mshr_miss_rate::total     0.037774                       # mshr miss rate for ReadExReq accesses
system.l2.demand_mshr_miss_rate::switch_cpus.inst     0.906937                       # mshr miss rate for demand accesses
system.l2.demand_mshr_miss_rate::switch_cpus.data     0.005337                       # mshr miss rate for demand accesses
system.l2.demand_mshr_miss_rate::total       0.006229                       # mshr miss rate for demand accesses
system.l2.overall_mshr_miss_rate::switch_cpus.inst     0.906937                       # mshr miss rate for overall accesses
system.l2.overall_mshr_miss_rate::switch_cpus.data     0.005337                       # mshr miss rate for overall accesses
system.l2.overall_mshr_miss_rate::total      0.006229                       # mshr miss rate for overall accesses
system.l2.ReadReq_avg_mshr_miss_latency::switch_cpus.inst 53924.440299                       # average ReadReq mshr miss latency
system.l2.ReadReq_avg_mshr_miss_latency::switch_cpus.data 49683.321352                       # average ReadReq mshr miss latency
system.l2.ReadReq_avg_mshr_miss_latency::total 50862.999481                       # average ReadReq mshr miss latency
system.l2.ReadExReq_avg_mshr_miss_latency::switch_cpus.data 51419.039643                       # average ReadExReq mshr miss latency
system.l2.ReadExReq_avg_mshr_miss_latency::total 51419.039643                       # average ReadExReq mshr miss latency
system.l2.demand_avg_mshr_miss_latency::switch_cpus.inst 53924.440299                       # average overall mshr miss latency
system.l2.demand_avg_mshr_miss_latency::switch_cpus.data 50660.276556                       # average overall mshr miss latency
system.l2.demand_avg_mshr_miss_latency::total 51130.849919                       # average overall mshr miss latency
system.l2.overall_avg_mshr_miss_latency::switch_cpus.inst 53924.440299                       # average overall mshr miss latency
system.l2.overall_avg_mshr_miss_latency::switch_cpus.data 50660.276556                       # average overall mshr miss latency
system.l2.overall_avg_mshr_miss_latency::total 51130.849919                       # average overall mshr miss latency
system.l2.no_allocate_misses                        0                       # Number of misses that were no-allocate
system.tol2bus.throughput                   339790384                       # Throughput (bytes/s)
system.tol2bus.trans_dist::ReadReq             549425                       # Transaction distribution
system.tol2bus.trans_dist::ReadResp            549424                       # Transaction distribution
system.tol2bus.trans_dist::Writeback           594285                       # Transaction distribution
system.tol2bus.trans_dist::ReadExReq            47414                       # Transaction distribution
system.tol2bus.trans_dist::ReadExResp           47414                       # Transaction distribution
system.tol2bus.pkt_count_system.cpu.icache.mem_side         1181                       # Packet count per connected master and slave (bytes)
system.tol2bus.pkt_count_system.cpu.dcache.mem_side      1786781                       # Packet count per connected master and slave (bytes)
system.tol2bus.pkt_count                      1787962                       # Packet count per connected master and slave (bytes)
system.tol2bus.tot_pkt_size_system.cpu.icache.mem_side        37760                       # Cumulative packet size per connected master and slave (bytes)
system.tol2bus.tot_pkt_size_system.cpu.dcache.mem_side     76194112                       # Cumulative packet size per connected master and slave (bytes)
system.tol2bus.tot_pkt_size                  76231872                       # Cumulative packet size per connected master and slave (bytes)
system.tol2bus.data_through_bus              76231872                       # Total data (bytes)
system.tol2bus.snoop_data_through_bus               0                       # Total snoop data (bytes)
system.tol2bus.reqLayer0.occupancy         1189847000                       # Layer occupancy (ticks)
[...]
system.cpu.icache.overall_mshr_hits::total          255                       # number of overall MSHR hits
system.cpu.icache.ReadReq_mshr_misses::switch_cpus.inst          591                       # number of ReadReq MSHR misses
system.cpu.icache.ReadReq_mshr_misses::total          591                       # number of ReadReq MSHR misses
system.cpu.icache.demand_mshr_misses::switch_cpus.inst          591                       # number of demand (read+write) MSHR misses
system.cpu.icache.demand_mshr_misses::total          591                       # number of demand (read+write) MSHR misses
system.cpu.icache.overall_mshr_misses::switch_cpus.inst          591                       # number of overall MSHR misses
system.cpu.icache.overall_mshr_misses::total          591                       # number of overall MSHR misses
system.cpu.icache.ReadReq_mshr_miss_latency::switch_cpus.inst     36198001                       # number of ReadReq MSHR miss cycles
system.cpu.icache.ReadReq_mshr_miss_latency::total     36198001                       # number of ReadReq MSHR miss cycles
system.cpu.icache.demand_mshr_miss_latency::switch_cpus.inst     36198001                       # number of demand (read+write) MSHR miss cycles
system.cpu.icache.demand_mshr_miss_latency::total     36198001                       # number of demand (read+write) MSHR miss cycles
system.cpu.icache.overall_mshr_miss_latency::switch_cpus.inst     36198001                       # number of overall MSHR miss cycles
system.cpu.icache.overall_mshr_miss_latency::total     36198001                       # number of overall MSHR miss cycles
system.cpu.icache.ReadReq_mshr_miss_rate::switch_cpus.inst     0.000009                       # mshr miss rate for ReadReq accesses
system.cpu.icache.ReadReq_mshr_miss_rate::total     0.000009                       # mshr miss rate for ReadReq accesses
system.cpu.icache.demand_mshr_miss_rate::switch_cpus.inst     0.000009                       # mshr miss rate for demand accesses
system.cpu.icache.demand_mshr_miss_rate::total     0.000009                       # mshr miss rate for demand accesses
system.cpu.icache.overall_mshr_miss_rate::switch_cpus.inst     0.000009                       # mshr miss rate for overall accesses
system.cpu.icache.overall_mshr_miss_rate::total     0.000009                       # mshr miss rate for overall accesses
system.cpu.icache.ReadReq_avg_mshr_miss_latency::switch_cpus.inst 61248.732657                       # average ReadReq mshr miss latency
system.cpu.icache.ReadReq_avg_mshr_miss_latency::total 61248.732657                       # average ReadReq mshr miss latency
system.cpu.icache.demand_avg_mshr_miss_latency::switch_cpus.inst 61248.732657                       # average overall mshr miss latency
system.cpu.icache.demand_avg_mshr_miss_latency::total 61248.732657                       # average overall mshr miss latency
system.cpu.icache.overall_avg_mshr_miss_latency::switch_cpus.inst 61248.732657                       # average overall mshr miss latency
system.cpu.icache.overall_avg_mshr_miss_latency::total 61248.732657                       # average overall mshr miss latency
system.cpu.icache.no_allocate_misses                0                       # Number of misses that were no-allocate
system.cpu.dcache.tags.replacements            596129                       # number of replacements
system.cpu.dcache.tags.tagsinuse           196.987429                       # Cycle average of tags in use
system.cpu.dcache.tags.total_refs           328191586                       # Total number of references to valid blocks.
system.cpu.dcache.tags.sampled_refs            596326                       # Sample count of references to valid blocks.
system.cpu.dcache.tags.avg_refs            550.355990                       # Average number of references to valid blocks.
system.cpu.dcache.tags.warmup_cycle                 0                       # Cycle when the warmup percentage was hit.
system.cpu.dcache.tags.occ_blocks::switch_cpus.data   196.982082                       # Average occupied blocks per requestor
system.cpu.dcache.tags.occ_blocks::cpu.data     0.005348                       # Average occupied blocks per requestor
system.cpu.dcache.tags.occ_percent::switch_cpus.data     0.384731                       # Average percentage of cache occupancy
system.cpu.dcache.tags.occ_percent::cpu.data     0.000010                       # Average percentage of cache occupancy
system.cpu.dcache.tags.occ_percent::total     0.384741                       # Average percentage of cache occupancy
system.cpu.dcache.ReadReq_hits::switch_cpus.data    198829137                       # number of ReadReq hits
system.cpu.dcache.ReadReq_hits::total       198829137                       # number of ReadReq hits
system.cpu.dcache.WriteReq_hits::switch_cpus.data    129361661                       # number of WriteReq hits
system.cpu.dcache.WriteReq_hits::total      129361661                       # number of WriteReq hits
system.cpu.dcache.LoadLockedReq_hits::switch_cpus.data           69                       # number of LoadLockedReq hits
system.cpu.dcache.LoadLockedReq_hits::total           69                       # number of LoadLockedReq hits
system.cpu.dcache.StoreCondReq_hits::switch_cpus.data           77                       # number of StoreCondReq hits
system.cpu.dcache.StoreCondReq_hits::total           77                       # number of StoreCondReq hits
system.cpu.dcache.demand_hits::switch_cpus.data    328190798                       # number of demand (read+write) hits
system.cpu.dcache.demand_hits::total        328190798                       # number of demand (read+write) hits
system.cpu.dcache.overall_hits::switch_cpus.data    328190798                       # number of overall hits
system.cpu.dcache.overall_hits::total       328190798                       # number of overall hits
system.cpu.dcache.ReadReq_misses::switch_cpus.data       627278                       # number of ReadReq misses
system.cpu.dcache.ReadReq_misses::total        627278                       # number of ReadReq misses
system.cpu.dcache.WriteReq_misses::switch_cpus.data        81482                       # number of WriteReq misses
system.cpu.dcache.WriteReq_misses::total        81482                       # number of WriteReq misses
system.cpu.dcache.LoadLockedReq_misses::switch_cpus.data            9                       # number of LoadLockedReq misses
system.cpu.dcache.LoadLockedReq_misses::total            9                       # number of LoadLockedReq misses
system.cpu.dcache.demand_misses::switch_cpus.data       708760                       # number of demand (read+write) misses
system.cpu.dcache.demand_misses::total         708760                       # number of demand (read+write) misses
system.cpu.dcache.overall_misses::switch_cpus.data       708760                       # number of overall misses
system.cpu.dcache.overall_misses::total        708760                       # number of overall misses
system.cpu.dcache.ReadReq_miss_latency::switch_cpus.data   8443406500                       # number of ReadReq miss cycles
system.cpu.dcache.ReadReq_miss_latency::total   8443406500                       # number of ReadReq miss cycles
system.cpu.dcache.WriteReq_miss_latency::switch_cpus.data   1433921010                       # number of WriteReq miss cycles
system.cpu.dcache.WriteReq_miss_latency::total   1433921010                       # number of WriteReq miss cycles
system.cpu.dcache.LoadLockedReq_miss_latency::switch_cpus.data       197250                       # number of LoadLockedReq miss cycles
system.cpu.dcache.LoadLockedReq_miss_latency::total       197250                       # number of LoadLockedReq miss cycles
system.cpu.dcache.demand_miss_latency::switch_cpus.data   9877327510                       # number of demand (read+write) miss cycles
system.cpu.dcache.demand_miss_latency::total   9877327510                       # number of demand (read+write) miss cycles
system.cpu.dcache.overall_miss_latency::switch_cpus.data   9877327510                       # number of overall miss cycles
system.cpu.dcache.overall_miss_latency::total   9877327510                       # number of overall miss cycles
system.cpu.dcache.ReadReq_accesses::switch_cpus.data    199456415                       # number of ReadReq accesses(hits+misses)
system.cpu.dcache.ReadReq_accesses::total    199456415                       # number of ReadReq accesses(hits+misses)
system.cpu.dcache.WriteReq_accesses::switch_cpus.data    129443143                       # number of WriteReq accesses(hits+misses)
system.cpu.dcache.WriteReq_accesses::total    129443143                       # number of WriteReq accesses(hits+misses)
system.cpu.dcache.LoadLockedReq_accesses::switch_cpus.data           78                       # number of LoadLockedReq accesses(hits+misses)
system.cpu.dcache.LoadLockedReq_accesses::total           78                       # number of LoadLockedReq accesses(hits+misses)
system.cpu.dcache.StoreCondReq_accesses::switch_cpus.data           77                       # number of StoreCondReq accesses(hits+misses)
system.cpu.dcache.StoreCondReq_accesses::total           77                       # number of StoreCondReq accesses(hits+misses)
system.cpu.dcache.demand_accesses::switch_cpus.data    328899558                       # number of demand (read+write) accesses
system.cpu.dcache.demand_accesses::total    328899558                       # number of demand (read+write) accesses
system.cpu.dcache.overall_accesses::switch_cpus.data    328899558                       # number of overall (read+write) accesses
system.cpu.dcache.overall_accesses::total    328899558                       # number of overall (read+write) accesses
system.cpu.dcache.ReadReq_miss_rate::switch_cpus.data     0.003145                       # miss rate for ReadReq accesses
system.cpu.dcache.ReadReq_miss_rate::total     0.003145                       # miss rate for ReadReq accesses
system.cpu.dcache.WriteReq_miss_rate::switch_cpus.data     0.000629                       # miss rate for WriteReq accesses
system.cpu.dcache.WriteReq_miss_rate::total     0.000629                       # miss rate for WriteReq accesses
system.cpu.dcache.LoadLockedReq_miss_rate::switch_cpus.data     0.115385                       # miss rate for LoadLockedReq accesses
system.cpu.dcache.LoadLockedReq_miss_rate::total     0.115385                       # miss rate for LoadLockedReq accesses
system.cpu.dcache.demand_miss_rate::switch_cpus.data     0.002155                       # miss rate for demand accesses
system.cpu.dcache.demand_miss_rate::total     0.002155                       # miss rate for demand accesses
system.cpu.dcache.overall_miss_rate::switch_cpus.data     0.002155                       # miss rate for overall accesses
system.cpu.dcache.overall_miss_rate::total     0.002155                       # miss rate for overall accesses
system.cpu.dcache.ReadReq_avg_miss_latency::switch_cpus.data 13460.389971                       # average ReadReq miss latency
system.cpu.dcache.ReadReq_avg_miss_latency::total 13460.389971                       # average ReadReq miss latency
system.cpu.dcache.WriteReq_avg_miss_latency::switch_cpus.data 17598.009499                       # average WriteReq miss latency
system.cpu.dcache.WriteReq_avg_miss_latency::total 17598.009499                       # average WriteReq miss latency
system.cpu.dcache.LoadLockedReq_avg_miss_latency::switch_cpus.data 21916.666667                       # average LoadLockedReq miss latency
system.cpu.dcache.LoadLockedReq_avg_miss_latency::total 21916.666667                       # average LoadLockedReq miss latency
system.cpu.dcache.demand_avg_miss_latency::switch_cpus.data 13936.067936                       # average overall miss latency
system.cpu.dcache.demand_avg_miss_latency::total 13936.067936                       # average overall miss latency
system.cpu.dcache.overall_avg_miss_latency::switch_cpus.data 13936.067936                       # average overall miss latency
system.cpu.dcache.overall_avg_miss_latency::total 13936.067936                       # average overall miss latency
system.cpu.dcache.blocked_cycles::no_mshrs         6658                       # number of cycles access was blocked
system.cpu.dcache.blocked_cycles::no_targets            0                       # number of cycles access was blocked
system.cpu.dcache.blocked::no_mshrs               387                       # number of cycles access was blocked
system.cpu.dcache.blocked::no_targets               0                       # number of cycles access was blocked
system.cpu.dcache.avg_blocked_cycles::no_mshrs    17.204134                       # average number of cycles each access was blocked
system.cpu.dcache.avg_blocked_cycles::no_targets          nan                       # average number of cycles each access was blocked
system.cpu.dcache.fast_writes                       0                       # number of fast writes performed
system.cpu.dcache.cache_copies                      0                       # number of cache copies performed
system.cpu.dcache.writebacks::writebacks       594285                       # number of writebacks
system.cpu.dcache.writebacks::total            594285                       # number of writebacks
system.cpu.dcache.ReadReq_mshr_hits::switch_cpus.data        78449                       # number of ReadReq MSHR hits
system.cpu.dcache.ReadReq_mshr_hits::total        78449                       # number of ReadReq MSHR hits
system.cpu.dcache.WriteReq_mshr_hits::switch_cpus.data        34068                       # number of WriteReq MSHR hits
system.cpu.dcache.WriteReq_mshr_hits::total        34068                       # number of WriteReq MSHR hits
system.cpu.dcache.LoadLockedReq_mshr_hits::switch_cpus.data            4                       # number of LoadLockedReq MSHR hits
system.cpu.dcache.LoadLockedReq_mshr_hits::total            4                       # number of LoadLockedReq MSHR hits
system.cpu.dcache.demand_mshr_hits::switch_cpus.data       112517                       # number of demand (read+write) MSHR hits
system.cpu.dcache.demand_mshr_hits::total       112517                       # number of demand (read+write) MSHR hits
system.cpu.dcache.overall_mshr_hits::switch_cpus.data       112517                       # number of overall MSHR hits
system.cpu.dcache.overall_mshr_hits::total       112517                       # number of overall MSHR hits
system.cpu.dcache.ReadReq_mshr_misses::switch_cpus.data       548829                       # number of ReadReq MSHR misses
system.cpu.dcache.ReadReq_mshr_misses::total       548829                       # number of ReadReq MSHR misses
system.cpu.dcache.WriteReq_mshr_misses::switch_cpus.data        47414                       # number of WriteReq MSHR misses
system.cpu.dcache.WriteReq_mshr_misses::total        47414                       # number of WriteReq MSHR misses
system.cpu.dcache.LoadLockedReq_mshr_misses::switch_cpus.data            5                       # number of LoadLockedReq MSHR misses
system.cpu.dcache.LoadLockedReq_mshr_misses::total            5                       # number of LoadLockedReq MSHR misses
system.cpu.dcache.demand_mshr_misses::switch_cpus.data       596243                       # number of demand (read+write) MSHR misses
system.cpu.dcache.demand_mshr_misses::total       596243                       # number of demand (read+write) MSHR misses
system.cpu.dcache.overall_mshr_misses::switch_cpus.data       596243                       # number of overall MSHR misses
system.cpu.dcache.overall_mshr_misses::total       596243                       # number of overall MSHR misses
system.cpu.dcache.ReadReq_mshr_miss_latency::switch_cpus.data   6167050500                       # number of ReadReq MSHR miss cycles
system.cpu.dcache.ReadReq_mshr_miss_latency::total   6167050500                       # number of ReadReq MSHR miss cycles
system.cpu.dcache.WriteReq_mshr_miss_latency::switch_cpus.data    616814998                       # number of WriteReq MSHR miss cycles
system.cpu.dcache.WriteReq_mshr_miss_latency::total    616814998                       # number of WriteReq MSHR miss cycles
system.cpu.dcache.LoadLockedReq_mshr_miss_latency::switch_cpus.data        55000                       # number of LoadLockedReq MSHR miss cycles
system.cpu.dcache.LoadLockedReq_mshr_miss_latency::total        55000                       # number of LoadLockedReq MSHR miss cycles
system.cpu.dcache.demand_mshr_miss_latency::switch_cpus.data   6783865498                       # number of demand (read+write) MSHR miss cycles
system.cpu.dcache.demand_mshr_miss_latency::total   6783865498                       # number of demand (read+write) MSHR miss cycles
system.cpu.dcache.overall_mshr_miss_latency::switch_cpus.data   6783865498                       # number of overall MSHR miss cycles
system.cpu.dcache.overall_mshr_miss_latency::total   6783865498                       # number of overall MSHR miss cycles
system.cpu.dcache.ReadReq_mshr_miss_rate::switch_cpus.data     0.002752                       # mshr miss rate for ReadReq accesses
system.cpu.dcache.ReadReq_mshr_miss_rate::total     0.002752                       # mshr miss rate for ReadReq accesses
system.cpu.dcache.WriteReq_mshr_miss_rate::switch_cpus.data     0.000366                       # mshr miss rate for WriteReq accesses
system.cpu.dcache.WriteReq_mshr_miss_rate::total     0.000366                       # mshr miss rate for WriteReq accesses
system.cpu.dcache.LoadLockedReq_mshr_miss_rate::switch_cpus.data     0.064103                       # mshr miss rate for LoadLockedReq accesses
system.cpu.dcache.LoadLockedReq_mshr_miss_rate::total     0.064103                       # mshr miss rate for LoadLockedReq accesses
system.cpu.dcache.demand_mshr_miss_rate::switch_cpus.data     0.001813                       # mshr miss rate for demand accesses
system.cpu.dcache.demand_mshr_miss_rate::total     0.001813                       # mshr miss rate for demand accesses
system.cpu.dcache.overall_mshr_miss_rate::switch_cpus.data     0.001813                       # mshr miss rate for overall accesses
system.cpu.dcache.overall_mshr_miss_rate::total     0.001813                       # mshr miss rate for overall accesses
system.cpu.dcache.ReadReq_avg_mshr_miss_latency::switch_cpus.data 11236.743139                       # average ReadReq mshr miss latency
system.cpu.dcache.ReadReq_avg_mshr_miss_latency::total 11236.743139                       # average ReadReq mshr miss latency
system.cpu.dcache.WriteReq_avg_mshr_miss_latency::switch_cpus.data 13009.132282                       # average WriteReq mshr miss latency
system.cpu.dcache.WriteReq_avg_mshr_miss_latency::total 13009.132282                       # average WriteReq mshr miss latency
system.cpu.dcache.LoadLockedReq_avg_mshr_miss_latency::switch_cpus.data        11000                       # average LoadLockedReq mshr miss latency
system.cpu.dcache.LoadLockedReq_avg_mshr_miss_latency::total        11000                       # average LoadLockedReq mshr miss latency
system.cpu.dcache.demand_avg_mshr_miss_latency::switch_cpus.data 11377.685772                       # average overall mshr miss latency
system.cpu.dcache.demand_avg_mshr_miss_latency::total 11377.685772                       # average overall mshr miss latency
system.cpu.dcache.overall_avg_mshr_miss_latency::switch_cpus.data 11377.685772                       # average overall mshr miss latency
system.cpu.dcache.overall_avg_mshr_miss_latency::total 11377.685772                       # average overall mshr miss latency
system.cpu.dcache.no_allocate_misses                0                       # Number of misses that were no-allocate

---------- End Simulation Statistics   ----------
