Redirecting stdout to /home/majid/gem5/gem5-relax/tests/test-progs/susan/runs/sailboat-corners-520-1-relaxed-1/sailboat-corners-520-1-relaxed-1.out
Redirecting stderr to /home/majid/gem5/gem5-relax/tests/test-progs/susan/runs/sailboat-corners-520-1-relaxed-1/sailboat-corners-520-1-relaxed-1.err
gem5 Simulator System.  http://gem5.org
gem5 is copyrighted software; use the --copyright option for details.

gem5 compiled Apr 21 2014 11:01:47
gem5 started Apr 25 2014 03:48:20
gem5 executing on drg.ics.uci.edu
command line: /home/majid/gem5/gem5-relax/build/ALPHA/gem5.opt --redirect-stdout --redirect-stderr --stdout-file=/home/majid/gem5/gem5-relax/tests/test-progs/susan/runs/sailboat-corners-520-1-relaxed-1/sailboat-corners-520-1-relaxed-1.out --stderr-file=/home/majid/gem5/gem5-relax/tests/test-progs/susan/runs/sailboat-corners-520-1-relaxed-1/sailboat-corners-520-1-relaxed-1.err --outdir=/home/majid/gem5/gem5-relax/tests/test-progs/susan/runs/sailboat-corners-520-1-relaxed-1 --debug-flags=PseudoInst /home/majid/gem5/gem5-relax/configs/example/se_relax_cache.py --cpu-type=detailed --num-cpus=1 --sys-clock=2GHz --cpu-clock=2GHz --mem-type=ddr3_1600_x64 --mem-size=512MB --caches --l2cache --num-l2caches=1 --num-l3caches=0 --l1d_size=32kB --l1i_size=32kB --l2_size=512kB --l1d_assoc=4 --l1i_assoc=4 --l2_assoc=8 --cacheline_size=64 --fast-forward=3390 --maxinsts=100000000000000 --at-instruction --replacement_policy=random --l1_voltage_parameter_file=/home/majid/gem5/gem5-relax/ber_info/gem5params-L1-A.csv --l2_voltage_parameter_file=/home/majid/gem5/gem5-relax/ber_info/gem5params-L2-A.csv --vdd3_l1=520 --vdd2_l1=1000 --vdd1_l1=1000 --vdd3_l2=1000 --vdd2_l2=1000 --vdd1_l2=1000 --init_afb_l1=1 --init_afb_l2=0 --clean_ways_l1=1 --clean_ways_l2=8 -c /home/majid/gem5/gem5-relax/tests/test-progs/susan/bin/alpha/susan -o /home/majid/gem5/gem5-relax/tests/test-progs/susan/inputs/sailboat.pgm /home/majid/gem5/gem5-relax/tests/test-progs/susan/outputs/sailboat-corners-520-1-relaxed-1.pgm -c
Global frequency set at 1000000000000 ticks per second
info: Reading this cache's voltage parameter file...
info: Reading this cache's voltage parameter file...
info: Reading this cache's voltage parameter file...
info: Generating fault maps for this cache
info: Fault map generated
info: Dumping cache fault map for VDDs [520 mV, 1000 mV, 1000 mV]...
info: Block# = 0 ==>  0, 0, 0
info: Block# = 1 ==>  0, 0, 0
info: Block# = 2 ==>  0, 0, 0
info: Block# = 3 ==>  1, 0, 0
info: Block# = 4 ==>  0, 0, 0
info: Block# = 5 ==>  0, 0, 0
info: Block# = 6 ==>  1, 0, 0
info: Block# = 7 ==>  0, 0, 0
info: Block# = 8 ==>  0, 0, 0
info: Block# = 9 ==>  1, 0, 0
info: Block# = 10 ==>  0, 0, 0
info: Block# = 11 ==>  0, 0, 0
info: Block# = 12 ==>  0, 0, 0
info: Block# = 13 ==>  0, 0, 0
info: Block# = 14 ==>  2, 0, 0
info: Block# = 15 ==>  1, 0, 0
info: Block# = 16 ==>  0, 0, 0
info: Block# = 17 ==>  1, 0, 0
info: Block# = 18 ==>  2, 0, 0
info: Block# = 19 ==>  0, 0, 0
info: Block# = 20 ==>  0, 0, 0
info: Block# = 21 ==>  1, 0, 0
info: Block# = 22 ==>  1, 0, 0
info: Block# = 23 ==>  1, 0, 0
info: Block# = 24 ==>  0, 0, 0
info: Block# = 25 ==>  1, 0, 0
info: Block# = 26 ==>  2, 0, 0
info: Block# = 27 ==>  0, 0, 0
info: Block# = 28 ==>  0, 0, 0
info: Block# = 29 ==>  1, 0, 0
info: Block# = 30 ==>  0, 0, 0
info: Block# = 31 ==>  0, 0, 0
info: Block# = 32 ==>  0, 0, 0
info: Block# = 33 ==>  1, 0, 0
info: Block# = 34 ==>  2, 0, 0
info: Block# = 35 ==>  0, 0, 0
info: Block# = 36 ==>  0, 0, 0
info: Block# = 37 ==>  0, 0, 0
info: Block# = 38 ==>  0, 0, 0
info: Block# = 39 ==>  1, 0, 0
info: Block# = 40 ==>  0, 0, 0
info: Block# = 41 ==>  3, 0, 0
info: Block# = 42 ==>  0, 0, 0
info: Block# = 43 ==>  2, 0, 0
info: Block# = 44 ==>  0, 0, 0
info: Block# = 45 ==>  1, 0, 0
info: Block# = 46 ==>  2, 0, 0
info: Block# = 47 ==>  0, 0, 0
info: Block# = 48 ==>  0, 0, 0
info: Block# = 49 ==>  1, 0, 0
info: Block# = 50 ==>  1, 0, 0
info: Block# = 51 ==>  1, 0, 0
info: Block# = 52 ==>  0, 0, 0
info: Block# = 53 ==>  2, 0, 0
info: Block# = 54 ==>  1, 0, 0
info: Block# = 55 ==>  0, 0, 0
info: Block# = 56 ==>  0, 0, 0
info: Block# = 57 ==>  1, 0, 0
info: Block# = 58 ==>  0, 0, 0
info: Block# = 59 ==>  2, 0, 0
info: Block# = 60 ==>  0, 0, 0
info: Block# = 61 ==>  0, 0, 0
info: Block# = 62 ==>  0, 0, 0
info: Block# = 63 ==>  0, 0, 0
info: Block# = 64 ==>  0, 0, 0
info: Block# = 65 ==>  0, 0, 0
info: Block# = 66 ==>  0, 0, 0
info: Block# = 67 ==>  0, 0, 0
info: Block# = 68 ==>  0, 0, 0
info: Block# = 69 ==>  0, 0, 0
info: Block# = 70 ==>  0, 0, 0
info: Block# = 71 ==>  0, 0, 0
info: Block# = 72 ==>  0, 0, 0
info: Block# = 73 ==>  1, 0, 0
info: Block# = 74 ==>  2, 0, 0
info: Block# = 75 ==>  2, 0, 0
info: Block# = 76 ==>  0, 0, 0
info: Block# = 77 ==>  1, 0, 0
info: Block# = 78 ==>  2, 0, 0
info: Block# = 79 ==>  1, 0, 0
info: Block# = 80 ==>  0, 0, 0
info: Block# = 81 ==>  1, 0, 0
info: Block# = 82 ==>  0, 0, 0
info: Block# = 83 ==>  0, 0, 0
info: Block# = 84 ==>  0, 0, 0
info: Block# = 85 ==>  0, 0, 0
info: Block# = 86 ==>  1, 0, 0
info: Block# = 87 ==>  0, 0, 0
info: Block# = 88 ==>  0, 0, 0
info: Block# = 89 ==>  0, 0, 0
info: Block# = 90 ==>  0, 0, 0
info: Block# = 91 ==>  1, 0, 0
info: Block# = 92 ==>  0, 0, 0
info: Block# = 93 ==>  1, 0, 0
info: Block# = 94 ==>  0, 0, 0
info: Block# = 95 ==>  0, 0, 0
info: Block# = 96 ==>  0, 0, 0
info: Block# = 97 ==>  0, 0, 0
info: Block# = 98 ==>  0, 0, 0
info: Block# = 99 ==>  2, 0, 0
info: Block# = 100 ==>  0, 0, 0
info: Block# = 101 ==>  0, 0, 0
info: Block# = 102 ==>  1, 0, 0
info: Block# = 103 ==>  0, 0, 0
info: Block# = 104 ==>  0, 0, 0
info: Block# = 105 ==>  2, 0, 0
info: Block# = 106 ==>  0, 0, 0
info: Block# = 107 ==>  1, 0, 0
info: Block# = 108 ==>  0, 0, 0
info: Block# = 109 ==>  0, 0, 0
info: Block# = 110 ==>  2, 0, 0
info: Block# = 111 ==>  2, 0, 0
info: Block# = 112 ==>  0, 0, 0
info: Block# = 113 ==>  0, 0, 0
info: Block# = 114 ==>  1, 0, 0
info: Block# = 115 ==>  1, 0, 0
info: Block# = 116 ==>  0, 0, 0
info: Block# = 117 ==>  0, 0, 0
info: Block# = 118 ==>  1, 0, 0
info: Block# = 119 ==>  1, 0, 0
info: Block# = 120 ==>  0, 0, 0
info: Block# = 121 ==>  0, 0, 0
info: Block# = 122 ==>  1, 0, 0
info: Block# = 123 ==>  0, 0, 0
info: Block# = 124 ==>  0, 0, 0
info: Block# = 125 ==>  0, 0, 0
info: Block# = 126 ==>  1, 0, 0
info: Block# = 127 ==>  0, 0, 0
info: Block# = 128 ==>  0, 0, 0
info: Block# = 129 ==>  0, 0, 0
info: Block# = 130 ==>  2, 0, 0
info: Block# = 131 ==>  0, 0, 0
info: Block# = 132 ==>  0, 0, 0
info: Block# = 133 ==>  0, 0, 0
info: Block# = 134 ==>  0, 0, 0
info: Block# = 135 ==>  0, 0, 0
info: Block# = 136 ==>  0, 0, 0
info: Block# = 137 ==>  0, 0, 0
info: Block# = 138 ==>  1, 0, 0
info: Block# = 139 ==>  1, 0, 0
info: Block# = 140 ==>  0, 0, 0
info: Block# = 141 ==>  0, 0, 0
info: Block# = 142 ==>  0, 0, 0
info: Block# = 143 ==>  0, 0, 0
info: Block# = 144 ==>  0, 0, 0
info: Block# = 145 ==>  0, 0, 0
info: Block# = 146 ==>  1, 0, 0
info: Block# = 147 ==>  1, 0, 0
info: Block# = 148 ==>  0, 0, 0
info: Block# = 149 ==>  0, 0, 0
info: Block# = 150 ==>  0, 0, 0
info: Block# = 151 ==>  1, 0, 0
info: Block# = 152 ==>  0, 0, 0
info: Block# = 153 ==>  1, 0, 0
info: Block# = 154 ==>  0, 0, 0
info: Block# = 155 ==>  0, 0, 0
info: Block# = 156 ==>  0, 0, 0
info: Block# = 157 ==>  1, 0, 0
info: Block# = 158 ==>  0, 0, 0
info: Block# = 159 ==>  1, 0, 0
info: Block# = 160 ==>  0, 0, 0
info: Block# = 161 ==>  0, 0, 0
info: Block# = 162 ==>  0, 0, 0
info: Block# = 163 ==>  2, 0, 0
info: Block# = 164 ==>  0, 0, 0
info: Block# = 165 ==>  0, 0, 0
info: Block# = 166 ==>  0, 0, 0
info: Block# = 167 ==>  1, 0, 0
info: Block# = 168 ==>  0, 0, 0
info: Block# = 169 ==>  0, 0, 0
info: Block# = 170 ==>  1, 0, 0
info: Block# = 171 ==>  0, 0, 0
info: Block# = 172 ==>  0, 0, 0
info: Block# = 173 ==>  0, 0, 0
info: Block# = 174 ==>  0, 0, 0
info: Block# = 175 ==>  0, 0, 0
info: Block# = 176 ==>  0, 0, 0
info: Block# = 177 ==>  1, 0, 0
info: Block# = 178 ==>  1, 0, 0
info: Block# = 179 ==>  0, 0, 0
info: Block# = 180 ==>  0, 0, 0
info: Block# = 181 ==>  0, 0, 0
info: Block# = 182 ==>  0, 0, 0
info: Block# = 183 ==>  0, 0, 0
info: Block# = 184 ==>  0, 0, 0
info: Block# = 185 ==>  0, 0, 0
info: Block# = 186 ==>  0, 0, 0
info: Block# = 187 ==>  0, 0, 0
info: Block# = 188 ==>  0, 0, 0
info: Block# = 189 ==>  0, 0, 0
info: Block# = 190 ==>  0, 0, 0
info: Block# = 191 ==>  0, 0, 0
info: Block# = 192 ==>  0, 0, 0
info: Block# = 193 ==>  0, 0, 0
info: Block# = 194 ==>  1, 0, 0
info: Block# = 195 ==>  0, 0, 0
info: Block# = 196 ==>  0, 0, 0
info: Block# = 197 ==>  1, 0, 0
info: Block# = 198 ==>  0, 0, 0
info: Block# = 199 ==>  0, 0, 0
info: Block# = 200 ==>  0, 0, 0
info: Block# = 201 ==>  1, 0, 0
info: Block# = 202 ==>  0, 0, 0
info: Block# = 203 ==>  0, 0, 0
info: Block# = 204 ==>  0, 0, 0
info: Block# = 205 ==>  2, 0, 0
info: Block# = 206 ==>  0, 0, 0
info: Block# = 207 ==>  0, 0, 0
info: Block# = 208 ==>  0, 0, 0
info: Block# = 209 ==>  0, 0, 0
info: Block# = 210 ==>  0, 0, 0
info: Block# = 211 ==>  1, 0, 0
info: Block# = 212 ==>  0, 0, 0
info: Block# = 213 ==>  0, 0, 0
info: Block# = 214 ==>  0, 0, 0
info: Block# = 215 ==>  0, 0, 0
info: Block# = 216 ==>  0, 0, 0
info: Block# = 217 ==>  2, 0, 0
info: Block# = 218 ==>  1, 0, 0
info: Block# = 219 ==>  3, 0, 0
info: Block# = 220 ==>  0, 0, 0
info: Block# = 221 ==>  1, 0, 0
info: Block# = 222 ==>  0, 0, 0
info: Block# = 223 ==>  0, 0, 0
info: Block# = 224 ==>  0, 0, 0
info: Block# = 225 ==>  1, 0, 0
info: Block# = 226 ==>  0, 0, 0
info: Block# = 227 ==>  0, 0, 0
info: Block# = 228 ==>  0, 0, 0
info: Block# = 229 ==>  2, 0, 0
info: Block# = 230 ==>  0, 0, 0
info: Block# = 231 ==>  0, 0, 0
info: Block# = 232 ==>  0, 0, 0
info: Block# = 233 ==>  2, 0, 0
info: Block# = 234 ==>  1, 0, 0
info: Block# = 235 ==>  1, 0, 0
info: Block# = 236 ==>  0, 0, 0
info: Block# = 237 ==>  0, 0, 0
info: Block# = 238 ==>  1, 0, 0
info: Block# = 239 ==>  0, 0, 0
info: Block# = 240 ==>  0, 0, 0
info: Block# = 241 ==>  1, 0, 0
info: Block# = 242 ==>  0, 0, 0
info: Block# = 243 ==>  2, 0, 0
info: Block# = 244 ==>  0, 0, 0
info: Block# = 245 ==>  0, 0, 0
info: Block# = 246 ==>  1, 0, 0
info: Block# = 247 ==>  1, 0, 0
info: Block# = 248 ==>  0, 0, 0
info: Block# = 249 ==>  0, 0, 0
info: Block# = 250 ==>  2, 0, 0
info: Block# = 251 ==>  0, 0, 0
info: Block# = 252 ==>  0, 0, 0
info: Block# = 253 ==>  0, 0, 0
info: Block# = 254 ==>  0, 0, 0
info: Block# = 255 ==>  0, 0, 0
info: Block# = 256 ==>  0, 0, 0
info: Block# = 257 ==>  0, 0, 0
info: Block# = 258 ==>  0, 0, 0
info: Block# = 259 ==>  0, 0, 0
info: Block# = 260 ==>  0, 0, 0
info: Block# = 261 ==>  1, 0, 0
info: Block# = 262 ==>  1, 0, 0
info: Block# = 263 ==>  1, 0, 0
info: Block# = 264 ==>  0, 0, 0
info: Block# = 265 ==>  2, 0, 0
info: Block# = 266 ==>  0, 0, 0
info: Block# = 267 ==>  1, 0, 0
info: Block# = 268 ==>  0, 0, 0
info: Block# = 269 ==>  2, 0, 0
info: Block# = 270 ==>  0, 0, 0
info: Block# = 271 ==>  3, 0, 0
info: Block# = 272 ==>  0, 0, 0
info: Block# = 273 ==>  1, 0, 0
info: Block# = 274 ==>  0, 0, 0
info: Block# = 275 ==>  1, 0, 0
info: Block# = 276 ==>  0, 0, 0
info: Block# = 277 ==>  0, 0, 0
info: Block# = 278 ==>  0, 0, 0
info: Block# = 279 ==>  1, 0, 0
info: Block# = 280 ==>  0, 0, 0
info: Block# = 281 ==>  2, 0, 0
info: Block# = 282 ==>  1, 0, 0
info: Block# = 283 ==>  1, 0, 0
info: Block# = 284 ==>  0, 0, 0
info: Block# = 285 ==>  1, 0, 0
info: Block# = 286 ==>  1, 0, 0
info: Block# = 287 ==>  1, 0, 0
info: Block# = 288 ==>  0, 0, 0
info: Block# = 289 ==>  2, 0, 0
info: Block# = 290 ==>  1, 0, 0
info: Block# = 291 ==>  0, 0, 0
info: Block# = 292 ==>  0, 0, 0
info: Block# = 293 ==>  2, 0, 0
info: Block# = 294 ==>  1, 0, 0
info: Block# = 295 ==>  1, 0, 0
info: Block# = 296 ==>  0, 0, 0
info: Block# = 297 ==>  0, 0, 0
info: Block# = 298 ==>  0, 0, 0
info: Block# = 299 ==>  1, 0, 0
info: Block# = 300 ==>  0, 0, 0
info: Block# = 301 ==>  0, 0, 0
info: Block# = 302 ==>  0, 0, 0
info: Block# = 303 ==>  0, 0, 0
info: Block# = 304 ==>  0, 0, 0
info: Block# = 305 ==>  1, 0, 0
info: Block# = 306 ==>  0, 0, 0
info: Block# = 307 ==>  0, 0, 0
info: Block# = 308 ==>  0, 0, 0
info: Block# = 309 ==>  2, 0, 0
info: Block# = 310 ==>  0, 0, 0
info: Block# = 311 ==>  1, 0, 0
info: Block# = 312 ==>  0, 0, 0
info: Block# = 313 ==>  0, 0, 0
info: Block# = 314 ==>  0, 0, 0
info: Block# = 315 ==>  0, 0, 0
info: Block# = 316 ==>  0, 0, 0
info: Block# = 317 ==>  1, 0, 0
info: Block# = 318 ==>  0, 0, 0
info: Block# = 319 ==>  1, 0, 0
info: Block# = 320 ==>  0, 0, 0
info: Block# = 321 ==>  0, 0, 0
info: Block# = 322 ==>  0, 0, 0
info: Block# = 323 ==>  0, 0, 0
info: Block# = 324 ==>  0, 0, 0
info: Block# = 325 ==>  0, 0, 0
info: Block# = 326 ==>  0, 0, 0
info: Block# = 327 ==>  0, 0, 0
info: Block# = 328 ==>  0, 0, 0
info: Block# = 329 ==>  0, 0, 0
info: Block# = 330 ==>  0, 0, 0
info: Block# = 331 ==>  1, 0, 0
info: Block# = 332 ==>  0, 0, 0
info: Block# = 333 ==>  0, 0, 0
info: Block# = 334 ==>  0, 0, 0
info: Block# = 335 ==>  0, 0, 0
info: Block# = 336 ==>  0, 0, 0
info: Block# = 337 ==>  2, 0, 0
info: Block# = 338 ==>  2, 0, 0
info: Block# = 339 ==>  0, 0, 0
info: Block# = 340 ==>  0, 0, 0
info: Block# = 341 ==>  0, 0, 0
info: Block# = 342 ==>  0, 0, 0
info: Block# = 343 ==>  0, 0, 0
info: Block# = 344 ==>  0, 0, 0
info: Block# = 345 ==>  0, 0, 0
info: Block# = 346 ==>  1, 0, 0
info: Block# = 347 ==>  0, 0, 0
info: Block# = 348 ==>  0, 0, 0
info: Block# = 349 ==>  3, 0, 0
info: Block# = 350 ==>  0, 0, 0
info: Block# = 351 ==>  0, 0, 0
info: Block# = 352 ==>  0, 0, 0
info: Block# = 353 ==>  1, 0, 0
info: Block# = 354 ==>  1, 0, 0
info: Block# = 355 ==>  0, 0, 0
info: Block# = 356 ==>  0, 0, 0
info: Block# = 357 ==>  1, 0, 0
info: Block# = 358 ==>  1, 0, 0
info: Block# = 359 ==>  1, 0, 0
info: Block# = 360 ==>  0, 0, 0
info: Block# = 361 ==>  0, 0, 0
info: Block# = 362 ==>  2, 0, 0
info: Block# = 363 ==>  0, 0, 0
info: Block# = 364 ==>  0, 0, 0
info: Block# = 365 ==>  0, 0, 0
info: Block# = 366 ==>  1, 0, 0
info: Block# = 367 ==>  0, 0, 0
info: Block# = 368 ==>  0, 0, 0
info: Block# = 369 ==>  0, 0, 0
info: Block# = 370 ==>  0, 0, 0
info: Block# = 371 ==>  1, 0, 0
info: Block# = 372 ==>  0, 0, 0
info: Block# = 373 ==>  2, 0, 0
info: Block# = 374 ==>  0, 0, 0
info: Block# = 375 ==>  0, 0, 0
info: Block# = 376 ==>  0, 0, 0
info: Block# = 377 ==>  4, 0, 0
info: Block# = 378 ==>  0, 0, 0
info: Block# = 379 ==>  0, 0, 0
info: Block# = 380 ==>  0, 0, 0
info: Block# = 381 ==>  0, 0, 0
info: Block# = 382 ==>  1, 0, 0
info: Block# = 383 ==>  0, 0, 0
info: Block# = 384 ==>  0, 0, 0
info: Block# = 385 ==>  0, 0, 0
info: Block# = 386 ==>  0, 0, 0
info: Block# = 387 ==>  1, 0, 0
info: Block# = 388 ==>  0, 0, 0
info: Block# = 389 ==>  0, 0, 0
info: Block# = 390 ==>  0, 0, 0
info: Block# = 391 ==>  1, 0, 0
info: Block# = 392 ==>  0, 0, 0
info: Block# = 393 ==>  0, 0, 0
info: Block# = 394 ==>  0, 0, 0
info: Block# = 395 ==>  1, 0, 0
info: Block# = 396 ==>  0, 0, 0
info: Block# = 397 ==>  0, 0, 0
info: Block# = 398 ==>  0, 0, 0
info: Block# = 399 ==>  2, 0, 0
info: Block# = 400 ==>  0, 0, 0
info: Block# = 401 ==>  0, 0, 0
info: Block# = 402 ==>  0, 0, 0
info: Block# = 403 ==>  0, 0, 0
info: Block# = 404 ==>  0, 0, 0
info: Block# = 405 ==>  1, 0, 0
info: Block# = 406 ==>  0, 0, 0
info: Block# = 407 ==>  1, 0, 0
info: Block# = 408 ==>  0, 0, 0
info: Block# = 409 ==>  1, 0, 0
info: Block# = 410 ==>  0, 0, 0
info: Block# = 411 ==>  0, 0, 0
info: Block# = 412 ==>  0, 0, 0
info: Block# = 413 ==>  2, 0, 0
info: Block# = 414 ==>  0, 0, 0
info: Block# = 415 ==>  0, 0, 0
info: Block# = 416 ==>  0, 0, 0
info: Block# = 417 ==>  2, 0, 0
info: Block# = 418 ==>  0, 0, 0
info: Block# = 419 ==>  0, 0, 0
info: Block# = 420 ==>  0, 0, 0
info: Block# = 421 ==>  0, 0, 0
info: Block# = 422 ==>  1, 0, 0
info: Block# = 423 ==>  0, 0, 0
info: Block# = 424 ==>  0, 0, 0
info: Block# = 425 ==>  1, 0, 0
info: Block# = 426 ==>  0, 0, 0
info: Block# = 427 ==>  1, 0, 0
info: Block# = 428 ==>  0, 0, 0
info: Block# = 429 ==>  1, 0, 0
info: Block# = 430 ==>  0, 0, 0
info: Block# = 431 ==>  1, 0, 0
info: Block# = 432 ==>  0, 0, 0
info: Block# = 433 ==>  1, 0, 0
info: Block# = 434 ==>  0, 0, 0
info: Block# = 435 ==>  0, 0, 0
info: Block# = 436 ==>  0, 0, 0
info: Block# = 437 ==>  2, 0, 0
info: Block# = 438 ==>  0, 0, 0
info: Block# = 439 ==>  1, 0, 0
info: Block# = 440 ==>  0, 0, 0
info: Block# = 441 ==>  0, 0, 0
info: Block# = 442 ==>  0, 0, 0
info: Block# = 443 ==>  1, 0, 0
info: Block# = 444 ==>  0, 0, 0
info: Block# = 445 ==>  0, 0, 0
info: Block# = 446 ==>  0, 0, 0
info: Block# = 447 ==>  0, 0, 0
info: Block# = 448 ==>  0, 0, 0
info: Block# = 449 ==>  1, 0, 0
info: Block# = 450 ==>  0, 0, 0
info: Block# = 451 ==>  0, 0, 0
info: Block# = 452 ==>  0, 0, 0
info: Block# = 453 ==>  2, 0, 0
info: Block# = 454 ==>  0, 0, 0
info: Block# = 455 ==>  0, 0, 0
info: Block# = 456 ==>  0, 0, 0
info: Block# = 457 ==>  0, 0, 0
info: Block# = 458 ==>  0, 0, 0
info: Block# = 459 ==>  1, 0, 0
info: Block# = 460 ==>  0, 0, 0
info: Block# = 461 ==>  0, 0, 0
info: Block# = 462 ==>  1, 0, 0
info: Block# = 463 ==>  1, 0, 0
info: Block# = 464 ==>  0, 0, 0
info: Block# = 465 ==>  0, 0, 0
info: Block# = 466 ==>  1, 0, 0
info: Block# = 467 ==>  1, 0, 0
info: Block# = 468 ==>  0, 0, 0
info: Block# = 469 ==>  1, 0, 0
info: Block# = 470 ==>  0, 0, 0
info: Block# = 471 ==>  0, 0, 0
info: Block# = 472 ==>  0, 0, 0
info: Block# = 473 ==>  0, 0, 0
info: Block# = 474 ==>  0, 0, 0
info: Block# = 475 ==>  2, 0, 0
info: Block# = 476 ==>  0, 0, 0
info: Block# = 477 ==>  1, 0, 0
info: Block# = 478 ==>  0, 0, 0
info: Block# = 479 ==>  0, 0, 0
info: Block# = 480 ==>  0, 0, 0
info: Block# = 481 ==>  1, 0, 0
info: Block# = 482 ==>  1, 0, 0
info: Block# = 483 ==>  0, 0, 0
info: Block# = 484 ==>  0, 0, 0
info: Block# = 485 ==>  1, 0, 0
info: Block# = 486 ==>  1, 0, 0
info: Block# = 487 ==>  2, 0, 0
info: Block# = 488 ==>  0, 0, 0
info: Block# = 489 ==>  1, 0, 0
info: Block# = 490 ==>  0, 0, 0
info: Block# = 491 ==>  0, 0, 0
info: Block# = 492 ==>  0, 0, 0
info: Block# = 493 ==>  2, 0, 0
info: Block# = 494 ==>  1, 0, 0
info: Block# = 495 ==>  2, 0, 0
info: Block# = 496 ==>  0, 0, 0
info: Block# = 497 ==>  0, 0, 0
info: Block# = 498 ==>  2, 0, 0
info: Block# = 499 ==>  1, 0, 0
info: Block# = 500 ==>  0, 0, 0
info: Block# = 501 ==>  0, 0, 0
info: Block# = 502 ==>  1, 0, 0
info: Block# = 503 ==>  1, 0, 0
info: Block# = 504 ==>  0, 0, 0
info: Block# = 505 ==>  1, 0, 0
info: Block# = 506 ==>  2, 0, 0
info: Block# = 507 ==>  1, 0, 0
info: Block# = 508 ==>  0, 0, 0
info: Block# = 509 ==>  1, 0, 0
info: Block# = 510 ==>  2, 0, 0
info: Block# = 511 ==>  1, 0, 0
info: Block [3][2] disabled and invalidated 
info: Block [4][2] disabled and invalidated 
info: Block [6][2] disabled and invalidated 
info: Block [8][2] disabled and invalidated 
info: Block [10][1] disabled and invalidated 
info: Block [10][3] disabled and invalidated 
info: Block [11][2] disabled and invalidated 
info: Block [13][1] disabled and invalidated 
info: Block [14][3] disabled and invalidated 
info: Block [18][2] disabled and invalidated 
info: Block [18][3] disabled and invalidated 
info: Block [19][2] disabled and invalidated 
info: Block [24][3] disabled and invalidated 
info: Block [26][1] disabled and invalidated 
info: Block [27][2] disabled and invalidated 
info: Block [27][3] disabled and invalidated 
info: Block [32][2] disabled and invalidated 
info: Block [40][3] disabled and invalidated 
info: Block [51][1] disabled and invalidated 
info: Block [54][1] disabled and invalidated 
info: Block [54][3] disabled and invalidated 
info: Block [57][1] disabled and invalidated 
info: Block [58][1] disabled and invalidated 
info: Block [60][3] disabled and invalidated 
info: Block [62][2] disabled and invalidated 
info: Block [66][1] disabled and invalidated 
info: Block [67][1] disabled and invalidated 
info: Block [67][3] disabled and invalidated 
info: Block [70][1] disabled and invalidated 
info: Block [72][1] disabled and invalidated 
info: Block [73][1] disabled and invalidated 
info: Block [77][1] disabled and invalidated 
info: Block [84][1] disabled and invalidated 
info: Block [84][2] disabled and invalidated 
info: Block [87][1] disabled and invalidated 
info: Block [90][2] disabled and invalidated 
info: Block [93][1] disabled and invalidated 
info: Block [94][1] disabled and invalidated 
info: Block [99][3] disabled and invalidated 
info: Block [103][1] disabled and invalidated 
info: Block [104][1] disabled and invalidated 
info: Block [109][1] disabled and invalidated 
info: Block [113][1] disabled and invalidated 
info: Block [118][3] disabled and invalidated 
info: Block [121][3] disabled and invalidated 
info: Block [123][1] disabled and invalidated 
info: Block [123][3] disabled and invalidated 
info: Block [124][2] disabled and invalidated 
info: Block [126][2] disabled and invalidated 
info: Block [127][2] disabled and invalidated 
info: Dumping cache status for current VDD = 520 mV and AFB = 1...
info: Status Bits: Disabled, Faulty, HWPrefetched, Referenced | Dirty, Readable, Writable, Valid
info: Block# = 0 ==>  0
info: Block# = 1 ==>  0
info: Block# = 2 ==>  0
info: Block# = 3 ==> 40
info: Block# = 4 ==>  0
info: Block# = 5 ==>  0
info: Block# = 6 ==> 40
info: Block# = 7 ==>  0
info: Block# = 8 ==>  0
info: Block# = 9 ==> 40
info: Block# = 10 ==>  0
info: Block# = 11 ==>  0
info: Block# = 12 ==>  0
info: Block# = 13 ==>  0
info: Block# = 14 ==> c0
info: Block# = 15 ==> 40
info: Block# = 16 ==>  0
info: Block# = 17 ==> 40
info: Block# = 18 ==> c0
info: Block# = 19 ==>  0
info: Block# = 20 ==>  0
info: Block# = 21 ==> 40
info: Block# = 22 ==> 40
info: Block# = 23 ==> 40
info: Block# = 24 ==>  0
info: Block# = 25 ==> 40
info: Block# = 26 ==> c0
info: Block# = 27 ==>  0
info: Block# = 28 ==>  0
info: Block# = 29 ==> 40
info: Block# = 30 ==>  0
info: Block# = 31 ==>  0
info: Block# = 32 ==>  0
info: Block# = 33 ==> 40
info: Block# = 34 ==> c0
info: Block# = 35 ==>  0
info: Block# = 36 ==>  0
info: Block# = 37 ==>  0
info: Block# = 38 ==>  0
info: Block# = 39 ==> 40
info: Block# = 40 ==>  0
info: Block# = 41 ==> c0
info: Block# = 42 ==>  0
info: Block# = 43 ==> c0
info: Block# = 44 ==>  0
info: Block# = 45 ==> 40
info: Block# = 46 ==> c0
info: Block# = 47 ==>  0
info: Block# = 48 ==>  0
info: Block# = 49 ==> 40
info: Block# = 50 ==> 40
info: Block# = 51 ==> 40
info: Block# = 52 ==>  0
info: Block# = 53 ==> c0
info: Block# = 54 ==> 40
info: Block# = 55 ==>  0
info: Block# = 56 ==>  0
info: Block# = 57 ==> 40
info: Block# = 58 ==>  0
info: Block# = 59 ==> c0
info: Block# = 60 ==>  0
info: Block# = 61 ==>  0
info: Block# = 62 ==>  0
info: Block# = 63 ==>  0
info: Block# = 64 ==>  0
info: Block# = 65 ==>  0
info: Block# = 66 ==>  0
info: Block# = 67 ==>  0
info: Block# = 68 ==>  0
info: Block# = 69 ==>  0
info: Block# = 70 ==>  0
info: Block# = 71 ==>  0
info: Block# = 72 ==>  0
info: Block# = 73 ==> 40
info: Block# = 74 ==> c0
info: Block# = 75 ==> c0
info: Block# = 76 ==>  0
info: Block# = 77 ==> 40
info: Block# = 78 ==> c0
info: Block# = 79 ==> 40
info: Block# = 80 ==>  0
info: Block# = 81 ==> 40
info: Block# = 82 ==>  0
info: Block# = 83 ==>  0
info: Block# = 84 ==>  0
info: Block# = 85 ==>  0
info: Block# = 86 ==> 40
info: Block# = 87 ==>  0
info: Block# = 88 ==>  0
info: Block# = 89 ==>  0
info: Block# = 90 ==>  0
info: Block# = 91 ==> 40
info: Block# = 92 ==>  0
info: Block# = 93 ==> 40
info: Block# = 94 ==>  0
info: Block# = 95 ==>  0
info: Block# = 96 ==>  0
info: Block# = 97 ==>  0
info: Block# = 98 ==>  0
info: Block# = 99 ==> c0
info: Block# = 100 ==>  0
info: Block# = 101 ==>  0
info: Block# = 102 ==> 40
info: Block# = 103 ==>  0
info: Block# = 104 ==>  0
info: Block# = 105 ==> c0
info: Block# = 106 ==>  0
info: Block# = 107 ==> 40
info: Block# = 108 ==>  0
info: Block# = 109 ==>  0
info: Block# = 110 ==> c0
info: Block# = 111 ==> c0
info: Block# = 112 ==>  0
info: Block# = 113 ==>  0
info: Block# = 114 ==> 40
info: Block# = 115 ==> 40
info: Block# = 116 ==>  0
info: Block# = 117 ==>  0
info: Block# = 118 ==> 40
info: Block# = 119 ==> 40
info: Block# = 120 ==>  0
info: Block# = 121 ==>  0
info: Block# = 122 ==> 40
info: Block# = 123 ==>  0
info: Block# = 124 ==>  0
info: Block# = 125 ==>  0
info: Block# = 126 ==> 40
info: Block# = 127 ==>  0
info: Block# = 128 ==>  0
info: Block# = 129 ==>  0
info: Block# = 130 ==> c0
info: Block# = 131 ==>  0
info: Block# = 132 ==>  0
info: Block# = 133 ==>  0
info: Block# = 134 ==>  0
info: Block# = 135 ==>  0
info: Block# = 136 ==>  0
info: Block# = 137 ==>  0
info: Block# = 138 ==> 40
info: Block# = 139 ==> 40
info: Block# = 140 ==>  0
info: Block# = 141 ==>  0
info: Block# = 142 ==>  0
info: Block# = 143 ==>  0
info: Block# = 144 ==>  0
info: Block# = 145 ==>  0
info: Block# = 146 ==> 40
info: Block# = 147 ==> 40
info: Block# = 148 ==>  0
info: Block# = 149 ==>  0
info: Block# = 150 ==>  0
info: Block# = 151 ==> 40
info: Block# = 152 ==>  0
info: Block# = 153 ==> 40
info: Block# = 154 ==>  0
info: Block# = 155 ==>  0
info: Block# = 156 ==>  0
info: Block# = 157 ==> 40
info: Block# = 158 ==>  0
info: Block# = 159 ==> 40
info: Block# = 160 ==>  0
info: Block# = 161 ==>  0
info: Block# = 162 ==>  0
info: Block# = 163 ==> c0
info: Block# = 164 ==>  0
info: Block# = 165 ==>  0
info: Block# = 166 ==>  0
info: Block# = 167 ==> 40
info: Block# = 168 ==>  0
info: Block# = 169 ==>  0
info: Block# = 170 ==> 40
info: Block# = 171 ==>  0
info: Block# = 172 ==>  0
info: Block# = 173 ==>  0
info: Block# = 174 ==>  0
info: Block# = 175 ==>  0
info: Block# = 176 ==>  0
info: Block# = 177 ==> 40
info: Block# = 178 ==> 40
info: Block# = 179 ==>  0
info: Block# = 180 ==>  0
info: Block# = 181 ==>  0
info: Block# = 182 ==>  0
info: Block# = 183 ==>  0
info: Block# = 184 ==>  0
info: Block# = 185 ==>  0
info: Block# = 186 ==>  0
info: Block# = 187 ==>  0
info: Block# = 188 ==>  0
info: Block# = 189 ==>  0
info: Block# = 190 ==>  0
info: Block# = 191 ==>  0
info: Block# = 192 ==>  0
info: Block# = 193 ==>  0
info: Block# = 194 ==> 40
info: Block# = 195 ==>  0
info: Block# = 196 ==>  0
info: Block# = 197 ==> 40
info: Block# = 198 ==>  0
info: Block# = 199 ==>  0
info: Block# = 200 ==>  0
info: Block# = 201 ==> 40
info: Block# = 202 ==>  0
info: Block# = 203 ==>  0
info: Block# = 204 ==>  0
info: Block# = 205 ==> c0
info: Block# = 206 ==>  0
info: Block# = 207 ==>  0
info: Block# = 208 ==>  0
info: Block# = 209 ==>  0
info: Block# = 210 ==>  0
info: Block# = 211 ==> 40
info: Block# = 212 ==>  0
info: Block# = 213 ==>  0
info: Block# = 214 ==>  0
info: Block# = 215 ==>  0
info: Block# = 216 ==>  0
info: Block# = 217 ==> c0
info: Block# = 218 ==> 40
info: Block# = 219 ==> c0
info: Block# = 220 ==>  0
info: Block# = 221 ==> 40
info: Block# = 222 ==>  0
info: Block# = 223 ==>  0
info: Block# = 224 ==>  0
info: Block# = 225 ==> 40
info: Block# = 226 ==>  0
info: Block# = 227 ==>  0
info: Block# = 228 ==>  0
info: Block# = 229 ==> c0
info: Block# = 230 ==>  0
info: Block# = 231 ==>  0
info: Block# = 232 ==>  0
info: Block# = 233 ==> c0
info: Block# = 234 ==> 40
info: Block# = 235 ==> 40
info: Block# = 236 ==>  0
info: Block# = 237 ==>  0
info: Block# = 238 ==> 40
info: Block# = 239 ==>  0
info: Block# = 240 ==>  0
info: Block# = 241 ==> 40
info: Block# = 242 ==>  0
info: Block# = 243 ==> c0
info: Block# = 244 ==>  0
info: Block# = 245 ==>  0
info: Block# = 246 ==> 40
info: Block# = 247 ==> 40
info: Block# = 248 ==>  0
info: Block# = 249 ==>  0
info: Block# = 250 ==> c0
info: Block# = 251 ==>  0
info: Block# = 252 ==>  0
info: Block# = 253 ==>  0
info: Block# = 254 ==>  0
info: Block# = 255 ==>  0
info: Block# = 256 ==>  0
info: Block# = 257 ==>  0
info: Block# = 258 ==>  0
info: Block# = 259 ==>  0
info: Block# = 260 ==>  0
info: Block# = 261 ==> 40
info: Block# = 262 ==> 40
info: Block# = 263 ==> 40
info: Block# = 264 ==>  0
info: Block# = 265 ==> c0
info: Block# = 266 ==>  0
info: Block# = 267 ==> 40
info: Block# = 268 ==>  0
info: Block# = 269 ==> c0
info: Block# = 270 ==>  0
info: Block# = 271 ==> c0
info: Block# = 272 ==>  0
info: Block# = 273 ==> 40
info: Block# = 274 ==>  0
info: Block# = 275 ==> 40
info: Block# = 276 ==>  0
info: Block# = 277 ==>  0
info: Block# = 278 ==>  0
info: Block# = 279 ==> 40
info: Block# = 280 ==>  0
info: Block# = 281 ==> c0
info: Block# = 282 ==> 40
info: Block# = 283 ==> 40
info: Block# = 284 ==>  0
info: Block# = 285 ==> 40
info: Block# = 286 ==> 40
info: Block# = 287 ==> 40
info: Block# = 288 ==>  0
info: Block# = 289 ==> c0
info: Block# = 290 ==> 40
info: Block# = 291 ==>  0
info: Block# = 292 ==>  0
info: Block# = 293 ==> c0
info: Block# = 294 ==> 40
info: Block# = 295 ==> 40
info: Block# = 296 ==>  0
info: Block# = 297 ==>  0
info: Block# = 298 ==>  0
info: Block# = 299 ==> 40
info: Block# = 300 ==>  0
info: Block# = 301 ==>  0
info: Block# = 302 ==>  0
info: Block# = 303 ==>  0
info: Block# = 304 ==>  0
info: Block# = 305 ==> 40
info: Block# = 306 ==>  0
info: Block# = 307 ==>  0
info: Block# = 308 ==>  0
info: Block# = 309 ==> c0
info: Block# = 310 ==>  0
info: Block# = 311 ==> 40
info: Block# = 312 ==>  0
info: Block# = 313 ==>  0
info: Block# = 314 ==>  0
info: Block# = 315 ==>  0
info: Block# = 316 ==>  0
info: Block# = 317 ==> 40
info: Block# = 318 ==>  0
info: Block# = 319 ==> 40
info: Block# = 320 ==>  0
info: Block# = 321 ==>  0
info: Block# = 322 ==>  0
info: Block# = 323 ==>  0
info: Block# = 324 ==>  0
info: Block# = 325 ==>  0
info: Block# = 326 ==>  0
info: Block# = 327 ==>  0
info: Block# = 328 ==>  0
info: Block# = 329 ==>  0
info: Block# = 330 ==>  0
info: Block# = 331 ==> 40
info: Block# = 332 ==>  0
info: Block# = 333 ==>  0
info: Block# = 334 ==>  0
info: Block# = 335 ==>  0
info: Block# = 336 ==>  0
info: Block# = 337 ==> c0
info: Block# = 338 ==> c0
info: Block# = 339 ==>  0
info: Block# = 340 ==>  0
info: Block# = 341 ==>  0
info: Block# = 342 ==>  0
info: Block# = 343 ==>  0
info: Block# = 344 ==>  0
info: Block# = 345 ==>  0
info: Block# = 346 ==> 40
info: Block# = 347 ==>  0
info: Block# = 348 ==>  0
info: Block# = 349 ==> c0
info: Block# = 350 ==>  0
info: Block# = 351 ==>  0
info: Block# = 352 ==>  0
info: Block# = 353 ==> 40
info: Block# = 354 ==> 40
info: Block# = 355 ==>  0
info: Block# = 356 ==>  0
info: Block# = 357 ==> 40
info: Block# = 358 ==> 40
info: Block# = 359 ==> 40
info: Block# = 360 ==>  0
info: Block# = 361 ==>  0
info: Block# = 362 ==> c0
info: Block# = 363 ==>  0
info: Block# = 364 ==>  0
info: Block# = 365 ==>  0
info: Block# = 366 ==> 40
info: Block# = 367 ==>  0
info: Block# = 368 ==>  0
info: Block# = 369 ==>  0
info: Block# = 370 ==>  0
info: Block# = 371 ==> 40
info: Block# = 372 ==>  0
info: Block# = 373 ==> c0
info: Block# = 374 ==>  0
info: Block# = 375 ==>  0
info: Block# = 376 ==>  0
info: Block# = 377 ==> c0
info: Block# = 378 ==>  0
info: Block# = 379 ==>  0
info: Block# = 380 ==>  0
info: Block# = 381 ==>  0
info: Block# = 382 ==> 40
info: Block# = 383 ==>  0
info: Block# = 384 ==>  0
info: Block# = 385 ==>  0
info: Block# = 386 ==>  0
info: Block# = 387 ==> 40
info: Block# = 388 ==>  0
info: Block# = 389 ==>  0
info: Block# = 390 ==>  0
info: Block# = 391 ==> 40
info: Block# = 392 ==>  0
info: Block# = 393 ==>  0
info: Block# = 394 ==>  0
info: Block# = 395 ==> 40
info: Block# = 396 ==>  0
info: Block# = 397 ==>  0
info: Block# = 398 ==>  0
info: Block# = 399 ==> c0
info: Block# = 400 ==>  0
info: Block# = 401 ==>  0
info: Block# = 402 ==>  0
info: Block# = 403 ==>  0
info: Block# = 404 ==>  0
info: Block# = 405 ==> 40
info: Block# = 406 ==>  0
info: Block# = 407 ==> 40
info: Block# = 408 ==>  0
info: Block# = 409 ==> 40
info: Block# = 410 ==>  0
info: Block# = 411 ==>  0
info: Block# = 412 ==>  0
info: Block# = 413 ==> c0
info: Block# = 414 ==>  0
info: Block# = 415 ==>  0
info: Block# = 416 ==>  0
info: Block# = 417 ==> c0
info: Block# = 418 ==>  0
info: Block# = 419 ==>  0
info: Block# = 420 ==>  0
info: Block# = 421 ==>  0
info: Block# = 422 ==> 40
info: Block# = 423 ==>  0
info: Block# = 424 ==>  0
info: Block# = 425 ==> 40
info: Block# = 426 ==>  0
info: Block# = 427 ==> 40
info: Block# = 428 ==>  0
info: Block# = 429 ==> 40
info: Block# = 430 ==>  0
info: Block# = 431 ==> 40
info: Block# = 432 ==>  0
info: Block# = 433 ==> 40
info: Block# = 434 ==>  0
info: Block# = 435 ==>  0
info: Block# = 436 ==>  0
info: Block# = 437 ==> c0
info: Block# = 438 ==>  0
info: Block# = 439 ==> 40
info: Block# = 440 ==>  0
info: Block# = 441 ==>  0
info: Block# = 442 ==>  0
info: Block# = 443 ==> 40
info: Block# = 444 ==>  0
info: Block# = 445 ==>  0
info: Block# = 446 ==>  0
info: Block# = 447 ==>  0
info: Block# = 448 ==>  0
info: Block# = 449 ==> 40
info: Block# = 450 ==>  0
info: Block# = 451 ==>  0
info: Block# = 452 ==>  0
info: Block# = 453 ==> c0
info: Block# = 454 ==>  0
info: Block# = 455 ==>  0
info: Block# = 456 ==>  0
info: Block# = 457 ==>  0
info: Block# = 458 ==>  0
info: Block# = 459 ==> 40
info: Block# = 460 ==>  0
info: Block# = 461 ==>  0
info: Block# = 462 ==> 40
info: Block# = 463 ==> 40
info: Block# = 464 ==>  0
info: Block# = 465 ==>  0
info: Block# = 466 ==> 40
info: Block# = 467 ==> 40
info: Block# = 468 ==>  0
info: Block# = 469 ==> 40
info: Block# = 470 ==>  0
info: Block# = 471 ==>  0
info: Block# = 472 ==>  0
info: Block# = 473 ==>  0
info: Block# = 474 ==>  0
info: Block# = 475 ==> c0
info: Block# = 476 ==>  0
info: Block# = 477 ==> 40
info: Block# = 478 ==>  0
info: Block# = 479 ==>  0
info: Block# = 480 ==>  0
info: Block# = 481 ==> 40
info: Block# = 482 ==> 40
info: Block# = 483 ==>  0
info: Block# = 484 ==>  0
info: Block# = 485 ==> 40
info: Block# = 486 ==> 40
info: Block# = 487 ==> c0
info: Block# = 488 ==>  0
info: Block# = 489 ==> 40
info: Block# = 490 ==>  0
info: Block# = 491 ==>  0
info: Block# = 492 ==>  0
info: Block# = 493 ==> c0
info: Block# = 494 ==> 40
info: Block# = 495 ==> c0
info: Block# = 496 ==>  0
info: Block# = 497 ==>  0
info: Block# = 498 ==> c0
info: Block# = 499 ==> 40
info: Block# = 500 ==>  0
info: Block# = 501 ==>  0
info: Block# = 502 ==> 40
info: Block# = 503 ==> 40
info: Block# = 504 ==>  0
info: Block# = 505 ==> 40
info: Block# = 506 ==> c0
info: Block# = 507 ==> 40
info: Block# = 508 ==>  0
info: Block# = 509 ==> 40
info: Block# = 510 ==> c0
info: Block# = 511 ==> 40
Switch at instruction count:3390
info: Entering event queue @ 0.  Starting simulation...
info: Increasing stack size by one page.
Switched CPUS @ tick 1711000
switching cpus
**** REAL SIMULATION ****
info: Entering event queue @ 1711000.  Starting simulation...
info: Increasing stack size by one page.
info: Increasing stack size by one page.
info: Increasing stack size by one page.
info: Increasing stack size by one page.
info: Increasing stack size by one page.
info: Increasing stack size by one page.
info: Increasing stack size by one page.
info: Increasing stack size by one page.
info: Increasing stack size by one page.
info: Increasing stack size by one page.
info: Increasing stack size by one page.
info: Increasing stack size by one page.
info: Increasing stack size by one page.
info: Increasing stack size by one page.
info: Increasing stack size by one page.
info: Increasing stack size by one page.
info: Increasing stack size by one page.
info: Increasing stack size by one page.
info: Increasing stack size by one page.
info: Increasing stack size by one page.
info: Increasing stack size by one page.
info: Increasing stack size by one page.
info: Increasing stack size by one page.
info: Increasing stack size by one page.
info: Increasing stack size by one page.
info: Increasing stack size by one page.
info: Increasing stack size by one page.
info: Increasing stack size by one page.
info: Increasing stack size by one page.
info: Increasing stack size by one page.
info: Increasing stack size by one page.
info: Increasing stack size by one page.
info: Increasing stack size by one page.
info: Increasing stack size by one page.
info: Increasing stack size by one page.
info: Increasing stack size by one page.
info: Increasing stack size by one page.
info: Increasing stack size by one page.
info: Increasing stack size by one page.
info: Increasing stack size by one page.
info: Increasing stack size by one page.
info: Increasing stack size by one page.
info: Increasing stack size by one page.
info: Increasing stack size by one page.
info: Increasing stack size by one page.
16185500: global: Approximate Region Added: begin=0x12010, end=0x52010, Table Size=1
31617000: global: Approximate Region Added: begin=0x54010, end=0x15401c, Table Size=2
31823000: global: Approximate Region Added: begin=0x1200cf470, end=0x1200cf674, Table Size=3
424620000: global: Approximate Region Added: begin=0x156010, end=0x25601c, Table Size=4
424830500: global: Approximate Region Added: begin=0x258010, end=0x35801c, Table Size=5
53424130000: global: Approximate Region Removed: begin=0x156010, end=0x25601c, Table Size=4
53424134000: global: Approximate Region Removed: begin=0x258010, end=0x35801c, Table Size=3
Exiting @ tick 53691556000 because target called exit()
