
---------- Begin Simulation Statistics ----------
sim_seconds                                  0.184857                       # Number of seconds simulated
sim_ticks                                184856632000                       # Number of ticks simulated
final_tick                               184858342500                       # Number of ticks from beginning of simulation (restored from checkpoints and never reset)
sim_freq                                 1000000000000                       # Frequency of simulated ticks
host_inst_rate                                  56558                       # Simulator instruction rate (inst/s)
host_op_rate                                    56558                       # Simulator op (including micro ops) rate (op/s)
host_tick_rate                               12318106                       # Simulator tick rate (ticks/s)
host_mem_usage                                 750376                       # Number of bytes of host memory used
host_seconds                                 15006.90                       # Real time elapsed on the host
sim_insts                                   848760973                       # Number of instructions simulated
sim_ops                                     848760973                       # Number of ops (including micro ops) simulated
system.physmem.bytes_read::switch_cpus.inst        62464                       # Number of bytes read from this memory
system.physmem.bytes_read::switch_cpus.data     31489472                       # Number of bytes read from this memory
system.physmem.bytes_read::total             31551936                       # Number of bytes read from this memory
system.physmem.bytes_inst_read::switch_cpus.inst        62464                       # Number of instructions bytes read from this memory
system.physmem.bytes_inst_read::total           62464                       # Number of instructions bytes read from this memory
system.physmem.bytes_written::writebacks     15738048                       # Number of bytes written to this memory
system.physmem.bytes_written::total          15738048                       # Number of bytes written to this memory
system.physmem.num_reads::switch_cpus.inst          976                       # Number of read requests responded to by this memory
system.physmem.num_reads::switch_cpus.data       492023                       # Number of read requests responded to by this memory
system.physmem.num_reads::total                492999                       # Number of read requests responded to by this memory
system.physmem.num_writes::writebacks          245907                       # Number of write requests responded to by this memory
system.physmem.num_writes::total               245907                       # Number of write requests responded to by this memory
system.physmem.bw_read::switch_cpus.inst       337905                       # Total read bandwidth from this memory (bytes/s)
system.physmem.bw_read::switch_cpus.data    170345373                       # Total read bandwidth from this memory (bytes/s)
system.physmem.bw_read::total               170683278                       # Total read bandwidth from this memory (bytes/s)
system.physmem.bw_inst_read::switch_cpus.inst       337905                       # Instruction read bandwidth from this memory (bytes/s)
system.physmem.bw_inst_read::total             337905                       # Instruction read bandwidth from this memory (bytes/s)
system.physmem.bw_write::writebacks          85136507                       # Write bandwidth from this memory (bytes/s)
system.physmem.bw_write::total               85136507                       # Write bandwidth from this memory (bytes/s)
system.physmem.bw_total::writebacks          85136507                       # Total bandwidth to/from this memory (bytes/s)
system.physmem.bw_total::switch_cpus.inst       337905                       # Total bandwidth to/from this memory (bytes/s)
system.physmem.bw_total::switch_cpus.data    170345373                       # Total bandwidth to/from this memory (bytes/s)
system.physmem.bw_total::total              255819786                       # Total bandwidth to/from this memory (bytes/s)
system.physmem.readReqs                        493000                       # Total number of read requests seen
system.physmem.writeReqs                       245907                       # Total number of write requests seen
system.physmem.cpureqs                         738907                       # Reqs generatd by CPU via cache - shady
system.physmem.bytesRead                     31551936                       # Total number of bytes read from memory
system.physmem.bytesWritten                  15738048                       # Total number of bytes written to memory
system.physmem.bytesConsumedRd               31551936                       # bytesRead derated as per pkt->getSize()
system.physmem.bytesConsumedWr               15738048                       # bytesWritten derated as per pkt->getSize()
system.physmem.servicedByWrQ                       14                       # Number of read reqs serviced by write Q
system.physmem.neitherReadNorWrite                  0                       # Reqs where no action is needed
system.physmem.perBankRdReqs::0                 30902                       # Track reads on a per bank basis
system.physmem.perBankRdReqs::1                 30791                       # Track reads on a per bank basis
system.physmem.perBankRdReqs::2                 30865                       # Track reads on a per bank basis
system.physmem.perBankRdReqs::3                 30735                       # Track reads on a per bank basis
system.physmem.perBankRdReqs::4                 30763                       # Track reads on a per bank basis
system.physmem.perBankRdReqs::5                 30769                       # Track reads on a per bank basis
system.physmem.perBankRdReqs::6                 30767                       # Track reads on a per bank basis
system.physmem.perBankRdReqs::7                 30810                       # Track reads on a per bank basis
system.physmem.perBankRdReqs::8                 30747                       # Track reads on a per bank basis
system.physmem.perBankRdReqs::9                 30760                       # Track reads on a per bank basis
system.physmem.perBankRdReqs::10                30765                       # Track reads on a per bank basis
system.physmem.perBankRdReqs::11                30887                       # Track reads on a per bank basis
system.physmem.perBankRdReqs::12                30911                       # Track reads on a per bank basis
system.physmem.perBankRdReqs::13                30853                       # Track reads on a per bank basis
system.physmem.perBankRdReqs::14                30772                       # Track reads on a per bank basis
system.physmem.perBankRdReqs::15                30889                       # Track reads on a per bank basis
system.physmem.perBankWrReqs::0                 15361                       # Track writes on a per bank basis
system.physmem.perBankWrReqs::1                 15361                       # Track writes on a per bank basis
system.physmem.perBankWrReqs::2                 15360                       # Track writes on a per bank basis
system.physmem.perBankWrReqs::3                 15360                       # Track writes on a per bank basis
system.physmem.perBankWrReqs::4                 15368                       # Track writes on a per bank basis
system.physmem.perBankWrReqs::5                 15406                       # Track writes on a per bank basis
system.physmem.perBankWrReqs::6                 15360                       # Track writes on a per bank basis
system.physmem.perBankWrReqs::7                 15360                       # Track writes on a per bank basis
system.physmem.perBankWrReqs::8                 15360                       # Track writes on a per bank basis
system.physmem.perBankWrReqs::9                 15360                       # Track writes on a per bank basis
system.physmem.perBankWrReqs::10                15361                       # Track writes on a per bank basis
system.physmem.perBankWrReqs::11                15409                       # Track writes on a per bank basis
system.physmem.perBankWrReqs::12                15395                       # Track writes on a per bank basis
system.physmem.perBankWrReqs::13                15360                       # Track writes on a per bank basis
system.physmem.perBankWrReqs::14                15366                       # Track writes on a per bank basis
system.physmem.perBankWrReqs::15                15360                       # Track writes on a per bank basis
system.physmem.numRdRetry                           0                       # Number of times rd buffer was full causing retry
system.physmem.numWrRetry                           0                       # Number of times wr buffer was full causing retry
system.physmem.totGap                    184856602000                       # Total gap between requests
system.physmem.readPktSize::0                       0                       # Categorize read packet sizes
system.physmem.readPktSize::1                       0                       # Categorize read packet sizes
system.physmem.readPktSize::2                       0                       # Categorize read packet sizes
system.physmem.readPktSize::3                       0                       # Categorize read packet sizes
system.physmem.readPktSize::4                       0                       # Categorize read packet sizes
system.physmem.readPktSize::5                       0                       # Categorize read packet sizes
system.physmem.readPktSize::6                  493000                       # Categorize read packet sizes
system.physmem.writePktSize::0                      0                       # Categorize write packet sizes
system.physmem.writePktSize::1                      0                       # Categorize write packet sizes
system.physmem.writePktSize::2                      0                       # Categorize write packet sizes
system.physmem.writePktSize::3                      0                       # Categorize write packet sizes
system.physmem.writePktSize::4                      0                       # Categorize write packet sizes
system.physmem.writePktSize::5                      0                       # Categorize write packet sizes
system.physmem.writePktSize::6                 245907                       # Categorize write packet sizes
system.physmem.rdQLenPdf::0                    492427                       # What read queue length does an incoming req see
system.physmem.rdQLenPdf::1                       425                       # What read queue length does an incoming req see
system.physmem.rdQLenPdf::2                       110                       # What read queue length does an incoming req see
system.physmem.rdQLenPdf::3                        22                       # What read queue length does an incoming req see
system.physmem.rdQLenPdf::4                         2                       # What read queue length does an incoming req see
system.physmem.rdQLenPdf::5                         0                       # What read queue length does an incoming req see
system.physmem.rdQLenPdf::6                         0                       # What read queue length does an incoming req see
system.physmem.rdQLenPdf::7                         0                       # What read queue length does an incoming req see
system.physmem.rdQLenPdf::8                         0                       # What read queue length does an incoming req see
system.physmem.rdQLenPdf::9                         0                       # What read queue length does an incoming req see
system.physmem.rdQLenPdf::10                        0                       # What read queue length does an incoming req see
system.physmem.rdQLenPdf::11                        0                       # What read queue length does an incoming req see
system.physmem.rdQLenPdf::12                        0                       # What read queue length does an incoming req see
system.physmem.rdQLenPdf::13                        0                       # What read queue length does an incoming req see
system.physmem.rdQLenPdf::14                        0                       # What read queue length does an incoming req see
system.physmem.rdQLenPdf::15                        0                       # What read queue length does an incoming req see
system.physmem.rdQLenPdf::16                        0                       # What read queue length does an incoming req see
system.physmem.rdQLenPdf::17                        0                       # What read queue length does an incoming req see
system.physmem.rdQLenPdf::18                        0                       # What read queue length does an incoming req see
system.physmem.rdQLenPdf::19                        0                       # What read queue length does an incoming req see
system.physmem.rdQLenPdf::20                        0                       # What read queue length does an incoming req see
system.physmem.rdQLenPdf::21                        0                       # What read queue length does an incoming req see
system.physmem.rdQLenPdf::22                        0                       # What read queue length does an incoming req see
system.physmem.rdQLenPdf::23                        0                       # What read queue length does an incoming req see
system.physmem.rdQLenPdf::24                        0                       # What read queue length does an incoming req see
system.physmem.rdQLenPdf::25                        0                       # What read queue length does an incoming req see
system.physmem.rdQLenPdf::26                        0                       # What read queue length does an incoming req see
system.physmem.rdQLenPdf::27                        0                       # What read queue length does an incoming req see
system.physmem.rdQLenPdf::28                        0                       # What read queue length does an incoming req see
system.physmem.rdQLenPdf::29                        0                       # What read queue length does an incoming req see
system.physmem.rdQLenPdf::30                        0                       # What read queue length does an incoming req see
system.physmem.rdQLenPdf::31                        0                       # What read queue length does an incoming req see
system.physmem.wrQLenPdf::0                     10686                       # What write queue length does an incoming req see
system.physmem.wrQLenPdf::1                     10692                       # What write queue length does an incoming req see
system.physmem.wrQLenPdf::2                     10692                       # What write queue length does an incoming req see
system.physmem.wrQLenPdf::3                     10692                       # What write queue length does an incoming req see
system.physmem.wrQLenPdf::4                     10692                       # What write queue length does an incoming req see
system.physmem.wrQLenPdf::5                     10692                       # What write queue length does an incoming req see
system.physmem.wrQLenPdf::6                     10692                       # What write queue length does an incoming req see
system.physmem.wrQLenPdf::7                     10692                       # What write queue length does an incoming req see
system.physmem.wrQLenPdf::8                     10692                       # What write queue length does an incoming req see
system.physmem.wrQLenPdf::9                     10692                       # What write queue length does an incoming req see
system.physmem.wrQLenPdf::10                    10692                       # What write queue length does an incoming req see
system.physmem.wrQLenPdf::11                    10692                       # What write queue length does an incoming req see
system.physmem.wrQLenPdf::12                    10692                       # What write queue length does an incoming req see
system.physmem.wrQLenPdf::13                    10692                       # What write queue length does an incoming req see
system.physmem.wrQLenPdf::14                    10691                       # What write queue length does an incoming req see
system.physmem.wrQLenPdf::15                    10691                       # What write queue length does an incoming req see
system.physmem.wrQLenPdf::16                    10691                       # What write queue length does an incoming req see
system.physmem.wrQLenPdf::17                    10691                       # What write queue length does an incoming req see
system.physmem.wrQLenPdf::18                    10691                       # What write queue length does an incoming req see
system.physmem.wrQLenPdf::19                    10691                       # What write queue length does an incoming req see
system.physmem.wrQLenPdf::20                    10691                       # What write queue length does an incoming req see
system.physmem.wrQLenPdf::21                    10691                       # What write queue length does an incoming req see
system.physmem.wrQLenPdf::22                    10691                       # What write queue length does an incoming req see
system.physmem.wrQLenPdf::23                        6                       # What write queue length does an incoming req see
system.physmem.wrQLenPdf::24                        0                       # What write queue length does an incoming req see
system.physmem.wrQLenPdf::25                        0                       # What write queue length does an incoming req see
system.physmem.wrQLenPdf::26                        0                       # What write queue length does an incoming req see
system.physmem.wrQLenPdf::27                        0                       # What write queue length does an incoming req see
system.physmem.wrQLenPdf::28                        0                       # What write queue length does an incoming req see
system.physmem.wrQLenPdf::29                        0                       # What write queue length does an incoming req see
system.physmem.wrQLenPdf::30                        0                       # What write queue length does an incoming req see
system.physmem.wrQLenPdf::31                        0                       # What write queue length does an incoming req see
system.physmem.bytesPerActivate::samples        35133                       # Bytes accessed per row activation
system.physmem.bytesPerActivate::mean     1344.542851                       # Bytes accessed per row activation
system.physmem.bytesPerActivate::gmean     622.317261                       # Bytes accessed per row activation
system.physmem.bytesPerActivate::stdev    1989.296709                       # Bytes accessed per row activation
system.physmem.bytesPerActivate::64-65           4273     12.16%     12.16% # Bytes accessed per row activation
system.physmem.bytesPerActivate::128-129         3582     10.20%     22.36% # Bytes accessed per row activation
system.physmem.bytesPerActivate::192-193          555      1.58%     23.94% # Bytes accessed per row activation
system.physmem.bytesPerActivate::256-257          585      1.67%     25.60% # Bytes accessed per row activation
system.physmem.bytesPerActivate::320-321          551      1.57%     27.17% # Bytes accessed per row activation
system.physmem.bytesPerActivate::384-385          700      1.99%     29.16% # Bytes accessed per row activation
system.physmem.bytesPerActivate::448-449         1532      4.36%     33.52% # Bytes accessed per row activation
system.physmem.bytesPerActivate::512-513         2213      6.30%     39.82% # Bytes accessed per row activation
system.physmem.bytesPerActivate::576-577          617      1.76%     41.58% # Bytes accessed per row activation
system.physmem.bytesPerActivate::640-641          624      1.78%     43.36% # Bytes accessed per row activation
system.physmem.bytesPerActivate::704-705          599      1.70%     45.06% # Bytes accessed per row activation
system.physmem.bytesPerActivate::768-769          736      2.09%     47.16% # Bytes accessed per row activation
system.physmem.bytesPerActivate::832-833          585      1.67%     48.82% # Bytes accessed per row activation
system.physmem.bytesPerActivate::896-897          802      2.28%     51.10% # Bytes accessed per row activation
system.physmem.bytesPerActivate::960-961         3113      8.86%     59.96% # Bytes accessed per row activation
system.physmem.bytesPerActivate::1024-1025         1897      5.40%     65.36% # Bytes accessed per row activation
system.physmem.bytesPerActivate::1088-1089          553      1.57%     66.94% # Bytes accessed per row activation
system.physmem.bytesPerActivate::1152-1153          504      1.43%     68.37% # Bytes accessed per row activation
system.physmem.bytesPerActivate::1216-1217          432      1.23%     69.60% # Bytes accessed per row activation
system.physmem.bytesPerActivate::1280-1281          532      1.51%     71.12% # Bytes accessed per row activation
system.physmem.bytesPerActivate::1344-1345          501      1.43%     72.54% # Bytes accessed per row activation
system.physmem.bytesPerActivate::1408-1409          705      2.01%     74.55% # Bytes accessed per row activation
system.physmem.bytesPerActivate::1472-1473         4509     12.83%     87.38% # Bytes accessed per row activation
system.physmem.bytesPerActivate::1536-1537          174      0.50%     87.88% # Bytes accessed per row activation
system.physmem.bytesPerActivate::1600-1601           91      0.26%     88.14% # Bytes accessed per row activation
system.physmem.bytesPerActivate::1664-1665           96      0.27%     88.41% # Bytes accessed per row activation
system.physmem.bytesPerActivate::1728-1729           65      0.19%     88.59% # Bytes accessed per row activation
system.physmem.bytesPerActivate::1792-1793           83      0.24%     88.83% # Bytes accessed per row activation
system.physmem.bytesPerActivate::1856-1857           70      0.20%     89.03% # Bytes accessed per row activation
system.physmem.bytesPerActivate::1920-1921           59      0.17%     89.20% # Bytes accessed per row activation
system.physmem.bytesPerActivate::1984-1985           96      0.27%     89.47% # Bytes accessed per row activation
system.physmem.bytesPerActivate::2048-2049           71      0.20%     89.67% # Bytes accessed per row activation
system.physmem.bytesPerActivate::2112-2113           86      0.24%     89.92% # Bytes accessed per row activation
system.physmem.bytesPerActivate::2176-2177           38      0.11%     90.03% # Bytes accessed per row activation
system.physmem.bytesPerActivate::2240-2241           32      0.09%     90.12% # Bytes accessed per row activation
system.physmem.bytesPerActivate::2304-2305           36      0.10%     90.22% # Bytes accessed per row activation
system.physmem.bytesPerActivate::2368-2369           40      0.11%     90.33% # Bytes accessed per row activation
system.physmem.bytesPerActivate::2432-2433           31      0.09%     90.42% # Bytes accessed per row activation
system.physmem.bytesPerActivate::2496-2497           25      0.07%     90.49% # Bytes accessed per row activation
system.physmem.bytesPerActivate::2560-2561           21      0.06%     90.55% # Bytes accessed per row activation
system.physmem.bytesPerActivate::2624-2625           31      0.09%     90.64% # Bytes accessed per row activation
system.physmem.bytesPerActivate::2688-2689           30      0.09%     90.73% # Bytes accessed per row activation
system.physmem.bytesPerActivate::2752-2753           34      0.10%     90.82% # Bytes accessed per row activation
system.physmem.bytesPerActivate::2816-2817           27      0.08%     90.90% # Bytes accessed per row activation
system.physmem.bytesPerActivate::2880-2881           38      0.11%     91.01% # Bytes accessed per row activation
system.physmem.bytesPerActivate::2944-2945           33      0.09%     91.10% # Bytes accessed per row activation
system.physmem.bytesPerActivate::3008-3009           21      0.06%     91.16% # Bytes accessed per row activation
system.physmem.bytesPerActivate::3072-3073           18      0.05%     91.21% # Bytes accessed per row activation
system.physmem.bytesPerActivate::3136-3137           15      0.04%     91.26% # Bytes accessed per row activation
system.physmem.bytesPerActivate::3200-3201           23      0.07%     91.32% # Bytes accessed per row activation
system.physmem.bytesPerActivate::3264-3265           10      0.03%     91.35% # Bytes accessed per row activation
system.physmem.bytesPerActivate::3328-3329           11      0.03%     91.38% # Bytes accessed per row activation
system.physmem.bytesPerActivate::3392-3393           15      0.04%     91.42% # Bytes accessed per row activation
system.physmem.bytesPerActivate::3456-3457           19      0.05%     91.48% # Bytes accessed per row activation
system.physmem.bytesPerActivate::3520-3521           11      0.03%     91.51% # Bytes accessed per row activation
system.physmem.bytesPerActivate::3584-3585           18      0.05%     91.56% # Bytes accessed per row activation
system.physmem.bytesPerActivate::3648-3649           16      0.05%     91.61% # Bytes accessed per row activation
system.physmem.bytesPerActivate::3712-3713           15      0.04%     91.65% # Bytes accessed per row activation
system.physmem.bytesPerActivate::3776-3777           13      0.04%     91.69% # Bytes accessed per row activation
system.physmem.bytesPerActivate::3840-3841           14      0.04%     91.73% # Bytes accessed per row activation
system.physmem.bytesPerActivate::3904-3905            8      0.02%     91.75% # Bytes accessed per row activation
system.physmem.bytesPerActivate::3968-3969           20      0.06%     91.81% # Bytes accessed per row activation
system.physmem.bytesPerActivate::4032-4033           30      0.09%     91.89% # Bytes accessed per row activation
system.physmem.bytesPerActivate::4096-4097           18      0.05%     91.94% # Bytes accessed per row activation
system.physmem.bytesPerActivate::4160-4161           34      0.10%     92.04% # Bytes accessed per row activation
system.physmem.bytesPerActivate::4224-4225           25      0.07%     92.11% # Bytes accessed per row activation
system.physmem.bytesPerActivate::4288-4289           14      0.04%     92.15% # Bytes accessed per row activation
system.physmem.bytesPerActivate::4352-4353           14      0.04%     92.19% # Bytes accessed per row activation
system.physmem.bytesPerActivate::4416-4417           13      0.04%     92.23% # Bytes accessed per row activation
system.physmem.bytesPerActivate::4480-4481           12      0.03%     92.26% # Bytes accessed per row activation
system.physmem.bytesPerActivate::4544-4545            4      0.01%     92.27% # Bytes accessed per row activation
system.physmem.bytesPerActivate::4608-4609           12      0.03%     92.31% # Bytes accessed per row activation
system.physmem.bytesPerActivate::4672-4673           11      0.03%     92.34% # Bytes accessed per row activation
system.physmem.bytesPerActivate::4736-4737           17      0.05%     92.39% # Bytes accessed per row activation
system.physmem.bytesPerActivate::4800-4801           10      0.03%     92.41% # Bytes accessed per row activation
system.physmem.bytesPerActivate::4864-4865            9      0.03%     92.44% # Bytes accessed per row activation
system.physmem.bytesPerActivate::4928-4929            8      0.02%     92.46% # Bytes accessed per row activation
system.physmem.bytesPerActivate::4992-4993           10      0.03%     92.49% # Bytes accessed per row activation
system.physmem.bytesPerActivate::5056-5057           10      0.03%     92.52% # Bytes accessed per row activation
system.physmem.bytesPerActivate::5120-5121            9      0.03%     92.55% # Bytes accessed per row activation
system.physmem.bytesPerActivate::5184-5185            3      0.01%     92.55% # Bytes accessed per row activation
system.physmem.bytesPerActivate::5248-5249            8      0.02%     92.58% # Bytes accessed per row activation
system.physmem.bytesPerActivate::5312-5313           12      0.03%     92.61% # Bytes accessed per row activation
system.physmem.bytesPerActivate::5376-5377           11      0.03%     92.64% # Bytes accessed per row activation
system.physmem.bytesPerActivate::5440-5441           12      0.03%     92.68% # Bytes accessed per row activation
system.physmem.bytesPerActivate::5504-5505           10      0.03%     92.70% # Bytes accessed per row activation
system.physmem.bytesPerActivate::5568-5569            9      0.03%     92.73% # Bytes accessed per row activation
system.physmem.bytesPerActivate::5632-5633           12      0.03%     92.76% # Bytes accessed per row activation
system.physmem.bytesPerActivate::5696-5697            4      0.01%     92.78% # Bytes accessed per row activation
system.physmem.bytesPerActivate::5760-5761            6      0.02%     92.79% # Bytes accessed per row activation
system.physmem.bytesPerActivate::5824-5825            5      0.01%     92.81% # Bytes accessed per row activation
system.physmem.bytesPerActivate::5888-5889           16      0.05%     92.85% # Bytes accessed per row activation
system.physmem.bytesPerActivate::5952-5953            9      0.03%     92.88% # Bytes accessed per row activation
system.physmem.bytesPerActivate::6016-6017            8      0.02%     92.90% # Bytes accessed per row activation
system.physmem.bytesPerActivate::6080-6081           31      0.09%     92.99% # Bytes accessed per row activation
system.physmem.bytesPerActivate::6144-6145            4      0.01%     93.00% # Bytes accessed per row activation
system.physmem.bytesPerActivate::6208-6209           22      0.06%     93.06% # Bytes accessed per row activation
system.physmem.bytesPerActivate::6272-6273           10      0.03%     93.09% # Bytes accessed per row activation
system.physmem.bytesPerActivate::6336-6337            2      0.01%     93.10% # Bytes accessed per row activation
system.physmem.bytesPerActivate::6400-6401            7      0.02%     93.12% # Bytes accessed per row activation
system.physmem.bytesPerActivate::6464-6465            3      0.01%     93.13% # Bytes accessed per row activation
system.physmem.bytesPerActivate::6528-6529           15      0.04%     93.17% # Bytes accessed per row activation
system.physmem.bytesPerActivate::6592-6593            5      0.01%     93.18% # Bytes accessed per row activation
system.physmem.bytesPerActivate::6656-6657           13      0.04%     93.22% # Bytes accessed per row activation
system.physmem.bytesPerActivate::6720-6721            8      0.02%     93.24% # Bytes accessed per row activation
system.physmem.bytesPerActivate::6784-6785           11      0.03%     93.27% # Bytes accessed per row activation
system.physmem.bytesPerActivate::6848-6849            7      0.02%     93.29% # Bytes accessed per row activation
system.physmem.bytesPerActivate::6912-6913            6      0.02%     93.31% # Bytes accessed per row activation
system.physmem.bytesPerActivate::6976-6977            9      0.03%     93.34% # Bytes accessed per row activation
system.physmem.bytesPerActivate::7040-7041            8      0.02%     93.36% # Bytes accessed per row activation
system.physmem.bytesPerActivate::7104-7105            8      0.02%     93.38% # Bytes accessed per row activation
system.physmem.bytesPerActivate::7168-7169           11      0.03%     93.41% # Bytes accessed per row activation
system.physmem.bytesPerActivate::7232-7233           20      0.06%     93.47% # Bytes accessed per row activation
system.physmem.bytesPerActivate::7296-7297           11      0.03%     93.50% # Bytes accessed per row activation
system.physmem.bytesPerActivate::7360-7361           10      0.03%     93.53% # Bytes accessed per row activation
system.physmem.bytesPerActivate::7424-7425           16      0.05%     93.58% # Bytes accessed per row activation
system.physmem.bytesPerActivate::7488-7489            5      0.01%     93.59% # Bytes accessed per row activation
system.physmem.bytesPerActivate::7552-7553           13      0.04%     93.63% # Bytes accessed per row activation
system.physmem.bytesPerActivate::7616-7617            4      0.01%     93.64% # Bytes accessed per row activation
system.physmem.bytesPerActivate::7680-7681           16      0.05%     93.68% # Bytes accessed per row activation
system.physmem.bytesPerActivate::7744-7745            9      0.03%     93.71% # Bytes accessed per row activation
system.physmem.bytesPerActivate::7808-7809            6      0.02%     93.73% # Bytes accessed per row activation
system.physmem.bytesPerActivate::7872-7873            4      0.01%     93.74% # Bytes accessed per row activation
system.physmem.bytesPerActivate::7936-7937           10      0.03%     93.77% # Bytes accessed per row activation
system.physmem.bytesPerActivate::8000-8001           15      0.04%     93.81% # Bytes accessed per row activation
system.physmem.bytesPerActivate::8064-8065           20      0.06%     93.87% # Bytes accessed per row activation
system.physmem.bytesPerActivate::8128-8129           34      0.10%     93.96% # Bytes accessed per row activation
system.physmem.bytesPerActivate::8192-8193         2121      6.04%    100.00% # Bytes accessed per row activation
system.physmem.bytesPerActivate::total          35133                       # Bytes accessed per row activation
system.physmem.totQLat                      340754250                       # Total cycles spent in queuing delays
system.physmem.totMemAccLat                9998529250                       # Sum of mem lat for all requests
system.physmem.totBusLat                   2464930000                       # Total cycles spent in databus access
system.physmem.totBankLat                  7192845000                       # Total cycles spent in bank access
system.physmem.avgQLat                         691.20                       # Average queueing delay per request
system.physmem.avgBankLat                    14590.36                       # Average bank access latency per request
system.physmem.avgBusLat                      5000.00                       # Average bus latency per request
system.physmem.avgMemAccLat                  20281.57                       # Average memory access latency
system.physmem.avgRdBW                         170.68                       # Average achieved read bandwidth in MB/s
system.physmem.avgWrBW                          85.14                       # Average achieved write bandwidth in MB/s
system.physmem.avgConsumedRdBW                 170.68                       # Average consumed read bandwidth in MB/s
system.physmem.avgConsumedWrBW                  85.14                       # Average consumed write bandwidth in MB/s
system.physmem.peakBW                        12800.00                       # Theoretical peak bandwidth in MB/s
system.physmem.busUtil                           2.00                       # Data bus utilization in percentage
system.physmem.avgRdQLen                         0.05                       # Average read queue length over time
system.physmem.avgWrQLen                        11.36                       # Average write queue length over time
system.physmem.readRowHits                     471690                       # Number of row buffer hits during reads
system.physmem.writeRowHits                    232056                       # Number of row buffer hits during writes
system.physmem.readRowHitRate                   95.68                       # Row buffer hit rate for reads
system.physmem.writeRowHitRate                  94.37                       # Row buffer hit rate for writes
system.physmem.avgGap                       250175.74                       # Average gap between requests
system.membus.throughput                    255819440                       # Throughput (bytes/s)
system.membus.trans_dist::ReadReq              247013                       # Transaction distribution
system.membus.trans_dist::ReadResp             247011                       # Transaction distribution
system.membus.trans_dist::Writeback            245907                       # Transaction distribution
system.membus.trans_dist::ReadExReq            245987                       # Transaction distribution
system.membus.trans_dist::ReadExResp           245987                       # Transaction distribution
system.membus.pkt_count_system.l2.mem_side      1231905                       # Packet count per connected master and slave (bytes)
system.membus.pkt_count                       1231905                       # Packet count per connected master and slave (bytes)
system.membus.tot_pkt_size_system.l2.mem_side     47289920                       # Cumulative packet size per connected master and slave (bytes)
system.membus.tot_pkt_size                   47289920                       # Cumulative packet size per connected master and slave (bytes)
system.membus.data_through_bus               47289920                       # Total data (bytes)
system.membus.snoop_data_through_bus                0                       # Total snoop data (bytes)
system.membus.reqLayer0.occupancy          1353081500                       # Layer occupancy (ticks)
system.membus.reqLayer0.utilization               0.7                       # Layer utilization (%)
system.membus.respLayer1.occupancy         2338583250                       # Layer occupancy (ticks)
system.membus.respLayer1.utilization              1.3                       # Layer utilization (%)
system.switch_cpus.branchPred.lookups        28915161                       # Number of BP lookups
system.switch_cpus.branchPred.condPredicted      9999577                       # Number of conditional branches predicted
system.switch_cpus.branchPred.condIncorrect        13672                       # Number of conditional branches incorrect
system.switch_cpus.branchPred.BTBLookups     18377087                       # Number of BTB lookups
system.switch_cpus.branchPred.BTBHits        18366102                       # Number of BTB hits
system.switch_cpus.branchPred.BTBCorrect            0                       # Number of correct BTB predictions (this stat may not work properly.
system.switch_cpus.branchPred.BTBHitPct     99.940224                       # BTB Hit Percentage
system.switch_cpus.branchPred.usedRAS         9449982                       # Number of times the RAS was used to get a target.
system.switch_cpus.branchPred.RASInCorrect          103                       # Number of incorrect RAS predictions.
system.switch_cpus.dtb.fetch_hits                   0                       # ITB hits
system.switch_cpus.dtb.fetch_misses                 0                       # ITB misses
system.switch_cpus.dtb.fetch_acv                    0                       # ITB acv
system.switch_cpus.dtb.fetch_accesses               0                       # ITB accesses
system.switch_cpus.dtb.read_hits            242276485                       # DTB read hits
system.switch_cpus.dtb.read_misses               4543                       # DTB read misses
system.switch_cpus.dtb.read_acv                     1                       # DTB read access violations
system.switch_cpus.dtb.read_accesses        242281028                       # DTB read accesses
system.switch_cpus.dtb.write_hits            81090100                       # DTB write hits
system.switch_cpus.dtb.write_misses              2252                       # DTB write misses
system.switch_cpus.dtb.write_acv                    0                       # DTB write access violations
system.switch_cpus.dtb.write_accesses        81092352                       # DTB write accesses
system.switch_cpus.dtb.data_hits            323366585                       # DTB hits
system.switch_cpus.dtb.data_misses               6795                       # DTB misses
system.switch_cpus.dtb.data_acv                     1                       # DTB access violations
system.switch_cpus.dtb.data_accesses        323373380                       # DTB accesses
system.switch_cpus.itb.fetch_hits            77406207                       # ITB hits
system.switch_cpus.itb.fetch_misses               101                       # ITB misses
system.switch_cpus.itb.fetch_acv                    0                       # ITB acv
system.switch_cpus.itb.fetch_accesses        77406308                       # ITB accesses
system.switch_cpus.itb.read_hits                    0                       # DTB read hits
system.switch_cpus.itb.read_misses                  0                       # DTB read misses
system.switch_cpus.itb.read_acv                     0                       # DTB read access violations
system.switch_cpus.itb.read_accesses                0                       # DTB read accesses
system.switch_cpus.itb.write_hits                   0                       # DTB write hits
system.switch_cpus.itb.write_misses                 0                       # DTB write misses
system.switch_cpus.itb.write_acv                    0                       # DTB write access violations
system.switch_cpus.itb.write_accesses               0                       # DTB write accesses
system.switch_cpus.itb.data_hits                    0                       # DTB hits
system.switch_cpus.itb.data_misses                  0                       # DTB misses
system.switch_cpus.itb.data_acv                     0                       # DTB access violations
system.switch_cpus.itb.data_accesses                0                       # DTB accesses
system.cpu.workload.num_syscalls                  503                       # Number of system calls
system.switch_cpus.numCycles                369713264                       # number of cpu cycles simulated
system.switch_cpus.numWorkItemsStarted              0                       # number of work items this cpu started
system.switch_cpus.numWorkItemsCompleted            0                       # number of work items this cpu completed
system.switch_cpus.fetch.icacheStallCycles     77448393                       # Number of cycles fetch is stalled on an Icache miss
system.switch_cpus.fetch.Insts              878417953                       # Number of instructions fetch has processed
system.switch_cpus.fetch.Branches            28915161                       # Number of branches that fetch encountered
system.switch_cpus.fetch.predictedBranches     27816084                       # Number of branches that fetch has predicted taken
system.switch_cpus.fetch.Cycles             128289811                       # Number of cycles fetch has run and was not squashing or blocked
system.switch_cpus.fetch.SquashCycles          157573                       # Number of cycles fetch has spent squashing
system.switch_cpus.fetch.BlockedCycles      131858639                       # Number of cycles fetch has spent blocked
system.switch_cpus.fetch.MiscStallCycles           63                       # Number of cycles fetch has spent waiting on interrupts, or bad addresses, or out of MSHRs
system.switch_cpus.fetch.PendingTrapStallCycles         1537                       # Number of stall cycles due to pending traps
system.switch_cpus.fetch.IcacheWaitRetryStallCycles           48                       # Number of stall cycles due to full MSHR
system.switch_cpus.fetch.CacheLines          77406207                       # Number of cache lines fetched
system.switch_cpus.fetch.IcacheSquashes          7222                       # Number of outstanding Icache misses that were squashed
system.switch_cpus.fetch.rateDist::samples    337725968                       # Number of instructions fetched each cycle (Total)
system.switch_cpus.fetch.rateDist::mean      2.600978                       # Number of instructions fetched each cycle (Total)
system.switch_cpus.fetch.rateDist::stdev     3.578249                       # Number of instructions fetched each cycle (Total)
system.switch_cpus.fetch.rateDist::underflows            0      0.00%      0.00% # Number of instructions fetched each cycle (Total)
system.switch_cpus.fetch.rateDist::0        209436157     62.01%     62.01% # Number of instructions fetched each cycle (Total)
system.switch_cpus.fetch.rateDist::1          4471859      1.32%     63.34% # Number of instructions fetched each cycle (Total)
system.switch_cpus.fetch.rateDist::2          8510361      2.52%     65.86% # Number of instructions fetched each cycle (Total)
system.switch_cpus.fetch.rateDist::3          4218421      1.25%     67.11% # Number of instructions fetched each cycle (Total)
system.switch_cpus.fetch.rateDist::4          5090410      1.51%     68.61% # Number of instructions fetched each cycle (Total)
system.switch_cpus.fetch.rateDist::5          2643059      0.78%     69.40% # Number of instructions fetched each cycle (Total)
system.switch_cpus.fetch.rateDist::6          6231547      1.85%     71.24% # Number of instructions fetched each cycle (Total)
system.switch_cpus.fetch.rateDist::7          3689340      1.09%     72.33% # Number of instructions fetched each cycle (Total)
system.switch_cpus.fetch.rateDist::8         93434814     27.67%    100.00% # Number of instructions fetched each cycle (Total)
system.switch_cpus.fetch.rateDist::overflows            0      0.00%    100.00% # Number of instructions fetched each cycle (Total)
system.switch_cpus.fetch.rateDist::min_value            0                       # Number of instructions fetched each cycle (Total)
system.switch_cpus.fetch.rateDist::max_value            8                       # Number of instructions fetched each cycle (Total)
system.switch_cpus.fetch.rateDist::total    337725968                       # Number of instructions fetched each cycle (Total)
system.switch_cpus.fetch.branchRate          0.078210                       # Number of branch fetches per cycle
system.switch_cpus.fetch.rate                2.375944                       # Number of inst fetches per cycle
system.switch_cpus.decode.IdleCycles        105259045                       # Number of cycles decode is idle
system.switch_cpus.decode.BlockedCycles     104062810                       # Number of cycles decode is blocked
system.switch_cpus.decode.RunCycles         105580793                       # Number of cycles decode is running
system.switch_cpus.decode.UnblockCycles      22696313                       # Number of cycles decode is unblocking
system.switch_cpus.decode.SquashCycles         127006                       # Number of cycles decode is squashing
system.switch_cpus.decode.BranchResolved      9461737                       # Number of times decode resolved a branch
system.switch_cpus.decode.BranchMispred           483                       # Number of times decode detected a branch misprediction
system.switch_cpus.decode.DecodedInsts      878325935                       # Number of instructions handled by decode
system.switch_cpus.decode.SquashedInsts          1542                       # Number of squashed instructions handled by decode
system.switch_cpus.rename.SquashCycles         127006                       # Number of cycles rename is squashing
system.switch_cpus.rename.IdleCycles        112512716                       # Number of cycles rename is idle
system.switch_cpus.rename.BlockCycles        45554498                       # Number of cycles rename is blocking
system.switch_cpus.rename.serializeStallCycles       372418                       # count of cycles rename stalled for serializing inst
system.switch_cpus.rename.RunCycles         121078328                       # Number of cycles rename is running
system.switch_cpus.rename.UnblockCycles      58081001                       # Number of cycles rename is unblocking
system.switch_cpus.rename.RenamedInsts      878192388                       # Number of instructions processed by rename
system.switch_cpus.rename.ROBFullEvents            31                       # Number of times rename has blocked due to ROB full
system.switch_cpus.rename.IQFullEvents          25295                       # Number of times rename has blocked due to IQ full
system.switch_cpus.rename.LSQFullEvents      53406479                       # Number of times rename has blocked due to LSQ full
system.switch_cpus.rename.RenamedOperands    749233440                       # Number of destination operands rename has renamed
system.switch_cpus.rename.RenameLookups    1228540506                       # Number of register rename lookups that rename has made
system.switch_cpus.rename.int_rename_lookups    855100677                       # Number of integer rename lookups
system.switch_cpus.rename.fp_rename_lookups    373439829                       # Number of floating rename lookups
system.switch_cpus.rename.CommittedMaps     748287981                       # Number of HB maps that are committed
system.switch_cpus.rename.UndoneMaps           945459                       # Number of HB maps that are undone due to squashing
system.switch_cpus.rename.serializingInsts         5818                       # count of serializing insts renamed
system.switch_cpus.rename.tempSerializingInsts         3736                       # count of temporary serializing insts renamed
system.switch_cpus.rename.skidInsts         174884169                       # count of insts added to the skid buffer
system.switch_cpus.memDep0.insertedLoads    242355949                       # Number of loads inserted to the mem dependence unit.
system.switch_cpus.memDep0.insertedStores     81140547                       # Number of stores inserted to the mem dependence unit.
system.switch_cpus.memDep0.conflictingLoads     31770136                       # Number of conflicting loads.
system.switch_cpus.memDep0.conflictingStores      2447846                       # Number of conflicting stores.
system.switch_cpus.iq.iqInstsAdded          849704612                       # Number of instructions added to the IQ (excludes non-spec)
system.switch_cpus.iq.iqNonSpecInstsAdded         6895                       # Number of non-speculative instructions added to the IQ
system.switch_cpus.iq.iqInstsIssued         849303586                       # Number of instructions issued
system.switch_cpus.iq.iqSquashedInstsIssued        11572                       # Number of squashed instructions issued
system.switch_cpus.iq.iqSquashedInstsExamined       944219                       # Number of squashed instructions iterated over during squash; mainly for profiling
system.switch_cpus.iq.iqSquashedOperandsExamined       762459                       # Number of squashed operands that are examined and possibly removed from graph
system.switch_cpus.iq.iqSquashedNonSpecRemoved          133                       # Number of squashed non-spec instructions that were removed
system.switch_cpus.iq.issued_per_cycle::samples    337725968                       # Number of insts issued each cycle
system.switch_cpus.iq.issued_per_cycle::mean     2.514771                       # Number of insts issued each cycle
system.switch_cpus.iq.issued_per_cycle::stdev     1.590332                       # Number of insts issued each cycle
system.switch_cpus.iq.issued_per_cycle::underflows            0      0.00%      0.00% # Number of insts issued each cycle
system.switch_cpus.iq.issued_per_cycle::0     35351187     10.47%     10.47% # Number of insts issued each cycle
system.switch_cpus.iq.issued_per_cycle::1     63014415     18.66%     29.13% # Number of insts issued each cycle
system.switch_cpus.iq.issued_per_cycle::2     77637717     22.99%     52.11% # Number of insts issued each cycle
system.switch_cpus.iq.issued_per_cycle::3     70368715     20.84%     72.95% # Number of insts issued each cycle
system.switch_cpus.iq.issued_per_cycle::4     50021270     14.81%     87.76% # Number of insts issued each cycle
system.switch_cpus.iq.issued_per_cycle::5     30197655      8.94%     96.70% # Number of insts issued each cycle
system.switch_cpus.iq.issued_per_cycle::6      9423665      2.79%     99.49% # Number of insts issued each cycle
system.switch_cpus.iq.issued_per_cycle::7      1398505      0.41%     99.91% # Number of insts issued each cycle
system.switch_cpus.iq.issued_per_cycle::8       312839      0.09%    100.00% # Number of insts issued each cycle
system.switch_cpus.iq.issued_per_cycle::overflows            0      0.00%    100.00% # Number of insts issued each cycle
system.switch_cpus.iq.issued_per_cycle::min_value            0                       # Number of insts issued each cycle
system.switch_cpus.iq.issued_per_cycle::max_value            8                       # Number of insts issued each cycle
system.switch_cpus.iq.issued_per_cycle::total    337725968                       # Number of insts issued each cycle
system.switch_cpus.iq.fu_full::No_OpClass            0      0.00%      0.00% # attempts to use FU when none available
system.switch_cpus.iq.fu_full::IntAlu           44385      0.41%      0.41% # attempts to use FU when none available
system.switch_cpus.iq.fu_full::IntMult              0      0.00%      0.41% # attempts to use FU when none available
system.switch_cpus.iq.fu_full::IntDiv               0      0.00%      0.41% # attempts to use FU when none available
system.switch_cpus.iq.fu_full::FloatAdd             0      0.00%      0.41% # attempts to use FU when none available
system.switch_cpus.iq.fu_full::FloatCmp             0      0.00%      0.41% # attempts to use FU when none available
system.switch_cpus.iq.fu_full::FloatCvt       1466350     13.66%     14.07% # attempts to use FU when none available
system.switch_cpus.iq.fu_full::FloatMult       750224      6.99%     21.06% # attempts to use FU when none available
system.switch_cpus.iq.fu_full::FloatDiv             0      0.00%     21.06% # attempts to use FU when none available
system.switch_cpus.iq.fu_full::FloatSqrt            0      0.00%     21.06% # attempts to use FU when none available
system.switch_cpus.iq.fu_full::SimdAdd              0      0.00%     21.06% # attempts to use FU when none available
system.switch_cpus.iq.fu_full::SimdAddAcc            0      0.00%     21.06% # attempts to use FU when none available
system.switch_cpus.iq.fu_full::SimdAlu              0      0.00%     21.06% # attempts to use FU when none available
system.switch_cpus.iq.fu_full::SimdCmp              0      0.00%     21.06% # attempts to use FU when none available
system.switch_cpus.iq.fu_full::SimdCvt              0      0.00%     21.06% # attempts to use FU when none available
system.switch_cpus.iq.fu_full::SimdMisc             0      0.00%     21.06% # attempts to use FU when none available
system.switch_cpus.iq.fu_full::SimdMult             0      0.00%     21.06% # attempts to use FU when none available
system.switch_cpus.iq.fu_full::SimdMultAcc            0      0.00%     21.06% # attempts to use FU when none available
system.switch_cpus.iq.fu_full::SimdShift            0      0.00%     21.06% # attempts to use FU when none available
system.switch_cpus.iq.fu_full::SimdShiftAcc            0      0.00%     21.06% # attempts to use FU when none available
system.switch_cpus.iq.fu_full::SimdSqrt             0      0.00%     21.06% # attempts to use FU when none available
system.switch_cpus.iq.fu_full::SimdFloatAdd            0      0.00%     21.06% # attempts to use FU when none available
system.switch_cpus.iq.fu_full::SimdFloatAlu            0      0.00%     21.06% # attempts to use FU when none available
system.switch_cpus.iq.fu_full::SimdFloatCmp            0      0.00%     21.06% # attempts to use FU when none available
system.switch_cpus.iq.fu_full::SimdFloatCvt            0      0.00%     21.06% # attempts to use FU when none available
system.switch_cpus.iq.fu_full::SimdFloatDiv            0      0.00%     21.06% # attempts to use FU when none available
system.switch_cpus.iq.fu_full::SimdFloatMisc            0      0.00%     21.06% # attempts to use FU when none available
system.switch_cpus.iq.fu_full::SimdFloatMult            0      0.00%     21.06% # attempts to use FU when none available
system.switch_cpus.iq.fu_full::SimdFloatMultAcc            0      0.00%     21.06% # attempts to use FU when none available
system.switch_cpus.iq.fu_full::SimdFloatSqrt            0      0.00%     21.06% # attempts to use FU when none available
system.switch_cpus.iq.fu_full::MemRead        4027227     37.52%     58.58% # attempts to use FU when none available
system.switch_cpus.iq.fu_full::MemWrite       4445929     41.42%    100.00% # attempts to use FU when none available
system.switch_cpus.iq.fu_full::IprAccess            0      0.00%    100.00% # attempts to use FU when none available
system.switch_cpus.iq.fu_full::InstPrefetch            0      0.00%    100.00% # attempts to use FU when none available
system.switch_cpus.iq.FU_type_0::No_OpClass          393      0.00%      0.00% # Type of FU issued
system.switch_cpus.iq.FU_type_0::IntAlu     299334133     35.24%     35.24% # Type of FU issued
system.switch_cpus.iq.FU_type_0::IntMult     18887500      2.22%     37.47% # Type of FU issued
system.switch_cpus.iq.FU_type_0::IntDiv             0      0.00%     37.47% # Type of FU issued
system.switch_cpus.iq.FU_type_0::FloatAdd    127957067     15.07%     52.53% # Type of FU issued
system.switch_cpus.iq.FU_type_0::FloatCmp            3      0.00%     52.53% # Type of FU issued
system.switch_cpus.iq.FU_type_0::FloatCvt     48252056      5.68%     58.22% # Type of FU issued
system.switch_cpus.iq.FU_type_0::FloatMult     28320039      3.33%     61.55% # Type of FU issued
system.switch_cpus.iq.FU_type_0::FloatDiv      3147068      0.37%     61.92% # Type of FU issued
system.switch_cpus.iq.FU_type_0::FloatSqrt            0      0.00%     61.92% # Type of FU issued
system.switch_cpus.iq.FU_type_0::SimdAdd            0      0.00%     61.92% # Type of FU issued
system.switch_cpus.iq.FU_type_0::SimdAddAcc            0      0.00%     61.92% # Type of FU issued
system.switch_cpus.iq.FU_type_0::SimdAlu            0      0.00%     61.92% # Type of FU issued
system.switch_cpus.iq.FU_type_0::SimdCmp            0      0.00%     61.92% # Type of FU issued
system.switch_cpus.iq.FU_type_0::SimdCvt            0      0.00%     61.92% # Type of FU issued
system.switch_cpus.iq.FU_type_0::SimdMisc            0      0.00%     61.92% # Type of FU issued
system.switch_cpus.iq.FU_type_0::SimdMult            0      0.00%     61.92% # Type of FU issued
system.switch_cpus.iq.FU_type_0::SimdMultAcc            0      0.00%     61.92% # Type of FU issued
system.switch_cpus.iq.FU_type_0::SimdShift            0      0.00%     61.92% # Type of FU issued
system.switch_cpus.iq.FU_type_0::SimdShiftAcc            0      0.00%     61.92% # Type of FU issued
system.switch_cpus.iq.FU_type_0::SimdSqrt            0      0.00%     61.92% # Type of FU issued
system.switch_cpus.iq.FU_type_0::SimdFloatAdd            0      0.00%     61.92% # Type of FU issued
system.switch_cpus.iq.FU_type_0::SimdFloatAlu            0      0.00%     61.92% # Type of FU issued
system.switch_cpus.iq.FU_type_0::SimdFloatCmp            0      0.00%     61.92% # Type of FU issued
system.switch_cpus.iq.FU_type_0::SimdFloatCvt            0      0.00%     61.92% # Type of FU issued
system.switch_cpus.iq.FU_type_0::SimdFloatDiv            0      0.00%     61.92% # Type of FU issued
system.switch_cpus.iq.FU_type_0::SimdFloatMisc            0      0.00%     61.92% # Type of FU issued
system.switch_cpus.iq.FU_type_0::SimdFloatMult            0      0.00%     61.92% # Type of FU issued
system.switch_cpus.iq.FU_type_0::SimdFloatMultAcc            0      0.00%     61.92% # Type of FU issued
system.switch_cpus.iq.FU_type_0::SimdFloatSqrt            0      0.00%     61.92% # Type of FU issued
system.switch_cpus.iq.FU_type_0::MemRead    242308772     28.53%     90.45% # Type of FU issued
system.switch_cpus.iq.FU_type_0::MemWrite     81096555      9.55%    100.00% # Type of FU issued
system.switch_cpus.iq.FU_type_0::IprAccess            0      0.00%    100.00% # Type of FU issued
system.switch_cpus.iq.FU_type_0::InstPrefetch            0      0.00%    100.00% # Type of FU issued
system.switch_cpus.iq.FU_type_0::total      849303586                       # Type of FU issued
system.switch_cpus.iq.rate                   2.297195                       # Inst issue rate
system.switch_cpus.iq.fu_busy_cnt            10734115                       # FU busy when requested
system.switch_cpus.iq.fu_busy_rate           0.012639                       # FU busy rate (busy events/executed inst)
system.switch_cpus.iq.int_inst_queue_reads   1520396644                       # Number of integer instruction queue reads
system.switch_cpus.iq.int_inst_queue_writes    588335668                       # Number of integer instruction queue writes
system.switch_cpus.iq.int_inst_queue_wakeup_accesses    586988985                       # Number of integer instruction queue wakeup accesses
system.switch_cpus.iq.fp_inst_queue_reads    526682183                       # Number of floating instruction queue reads
system.switch_cpus.iq.fp_inst_queue_writes    262332160                       # Number of floating instruction queue writes
system.switch_cpus.iq.fp_inst_queue_wakeup_accesses    262222656                       # Number of floating instruction queue wakeup accesses
system.switch_cpus.iq.int_alu_accesses      595586820                       # Number of integer alu accesses
system.switch_cpus.iq.fp_alu_accesses       264450488                       # Number of floating point alu accesses
system.switch_cpus.iew.lsq.thread0.forwLoads     32696257                       # Number of loads that had data forwarded from stores
system.switch_cpus.iew.lsq.thread0.invAddrLoads            0                       # Number of loads ignored due to an invalid address
system.switch_cpus.iew.lsq.thread0.squashedLoads       305393                       # Number of loads squashed
system.switch_cpus.iew.lsq.thread0.ignoredResponses          727                       # Number of memory responses ignored because the instruction is squashed
system.switch_cpus.iew.lsq.thread0.memOrderViolation        12214                       # Number of memory ordering violations
system.switch_cpus.iew.lsq.thread0.squashedStores        93633                       # Number of stores squashed
system.switch_cpus.iew.lsq.thread0.invAddrSwpfs            0                       # Number of software prefetches ignored due to an invalid address
system.switch_cpus.iew.lsq.thread0.blockedLoads            0                       # Number of blocked loads due to partial load-store forwarding
system.switch_cpus.iew.lsq.thread0.rescheduledLoads           15                       # Number of loads that were rescheduled
system.switch_cpus.iew.lsq.thread0.cacheBlocked          757                       # Number of times an access to memory failed due to the cache being blocked
system.switch_cpus.iew.iewIdleCycles                0                       # Number of cycles IEW is idle
system.switch_cpus.iew.iewSquashCycles         127006                       # Number of cycles IEW is squashing
system.switch_cpus.iew.iewBlockCycles        13365129                       # Number of cycles IEW is blocking
system.switch_cpus.iew.iewUnblockCycles       1043950                       # Number of cycles IEW is unblocking
system.switch_cpus.iew.iewDispatchedInsts    878049236                       # Number of instructions dispatched to IQ
system.switch_cpus.iew.iewDispSquashedInsts         5663                       # Number of squashed instructions skipped by dispatch
system.switch_cpus.iew.iewDispLoadInsts     242355949                       # Number of dispatched load instructions
system.switch_cpus.iew.iewDispStoreInsts     81140547                       # Number of dispatched store instructions
system.switch_cpus.iew.iewDispNonSpecInsts         3733                       # Number of dispatched non-speculative instructions
system.switch_cpus.iew.iewIQFullEvents          37308                       # Number of times the IQ has become full, causing a stall
system.switch_cpus.iew.iewLSQFullEvents         84298                       # Number of times the LSQ has become full, causing a stall
system.switch_cpus.iew.memOrderViolationEvents        12214                       # Number of memory order violations
system.switch_cpus.iew.predictedTakenIncorrect        10165                       # Number of branches that were predicted taken incorrectly
system.switch_cpus.iew.predictedNotTakenIncorrect         4146                       # Number of branches that were predicted not taken incorrectly
system.switch_cpus.iew.branchMispredicts        14311                       # Number of branch mispredicts detected at execute
system.switch_cpus.iew.iewExecutedInsts     849260525                       # Number of executed instructions
system.switch_cpus.iew.iewExecLoadInsts     242281038                       # Number of load instructions executed
system.switch_cpus.iew.iewExecSquashedInsts        43061                       # Number of squashed instructions skipped in execute
system.switch_cpus.iew.exec_swp                     0                       # number of swp insts executed
system.switch_cpus.iew.exec_nop              28337729                       # number of nop insts executed
system.switch_cpus.iew.exec_refs            323373392                       # number of memory reference insts executed
system.switch_cpus.iew.exec_branches         28892139                       # Number of branches executed
system.switch_cpus.iew.exec_stores           81092354                       # Number of stores executed
system.switch_cpus.iew.exec_rate             2.297079                       # Inst execution rate
system.switch_cpus.iew.wb_sent              849234058                       # cumulative count of insts sent to commit
system.switch_cpus.iew.wb_count             849211641                       # cumulative count of insts written-back
system.switch_cpus.iew.wb_producers         723386309                       # num instructions producing a value
system.switch_cpus.iew.wb_consumers         816046544                       # num instructions consuming a value
system.switch_cpus.iew.wb_penalized                 0                       # number of instrctions required to write to 'other' IQ
system.switch_cpus.iew.wb_rate               2.296947                       # insts written-back per cycle
system.switch_cpus.iew.wb_fanout             0.886452                       # average fanout of values written-back
system.switch_cpus.iew.wb_penalized_rate            0                       # fraction of instructions written-back that wrote to 'other' IQ
system.switch_cpus.commit.commitSquashedInsts       871393                       # The number of squashed insts skipped by commit
system.switch_cpus.commit.commitNonSpecStalls         6762                       # The number of times commit has been forced to stall to communicate backwards
system.switch_cpus.commit.branchMispredicts        13201                       # The number of times a branch was mispredicted
system.switch_cpus.commit.committed_per_cycle::samples    337598962                       # Number of insts commited each cycle
system.switch_cpus.commit.committed_per_cycle::mean     2.598026                       # Number of insts commited each cycle
system.switch_cpus.commit.committed_per_cycle::stdev     3.281833                       # Number of insts commited each cycle
system.switch_cpus.commit.committed_per_cycle::underflows            0      0.00%      0.00% # Number of insts commited each cycle
system.switch_cpus.commit.committed_per_cycle::0    132293099     39.19%     39.19% # Number of insts commited each cycle
system.switch_cpus.commit.committed_per_cycle::1     87691523     25.98%     65.16% # Number of insts commited each cycle
system.switch_cpus.commit.committed_per_cycle::2     11707069      3.47%     68.63% # Number of insts commited each cycle
system.switch_cpus.commit.committed_per_cycle::3      5934986      1.76%     70.39% # Number of insts commited each cycle
system.switch_cpus.commit.committed_per_cycle::4      5697580      1.69%     72.07% # Number of insts commited each cycle
system.switch_cpus.commit.committed_per_cycle::5      3773420      1.12%     73.19% # Number of insts commited each cycle
system.switch_cpus.commit.committed_per_cycle::6      5794158      1.72%     74.91% # Number of insts commited each cycle
system.switch_cpus.commit.committed_per_cycle::7      5899189      1.75%     76.66% # Number of insts commited each cycle
system.switch_cpus.commit.committed_per_cycle::8     78807938     23.34%    100.00% # Number of insts commited each cycle
system.switch_cpus.commit.committed_per_cycle::overflows            0      0.00%    100.00% # Number of insts commited each cycle
system.switch_cpus.commit.committed_per_cycle::min_value            0                       # Number of insts commited each cycle
system.switch_cpus.commit.committed_per_cycle::max_value            8                       # Number of insts commited each cycle
system.switch_cpus.commit.committed_per_cycle::total    337598962                       # Number of insts commited each cycle
system.switch_cpus.commit.committedInsts    877090814                       # Number of instructions committed
system.switch_cpus.commit.committedOps      877090814                       # Number of ops (including micro ops) committed
system.switch_cpus.commit.swp_count                 0                       # Number of s/w prefetches committed
system.switch_cpus.commit.refs              323097470                       # Number of memory references committed
system.switch_cpus.commit.loads             242050556                       # Number of loads committed
system.switch_cpus.commit.membars                3127                       # Number of memory barriers committed
system.switch_cpus.commit.branches           28869639                       # Number of branches committed
system.switch_cpus.commit.fp_insts          262150420                       # Number of committed floating point instructions.
system.switch_cpus.commit.int_insts         689356941                       # Number of committed integer instructions.
system.switch_cpus.commit.function_calls      9447851                       # Number of function calls committed.
system.switch_cpus.commit.bw_lim_events      78807938                       # number cycles where commit BW limit reached
system.switch_cpus.commit.bw_limited                0                       # number of insts not committed due to BW limits
system.switch_cpus.rob.rob_reads           1136699151                       # The number of ROB reads
system.switch_cpus.rob.rob_writes          1756051729                       # The number of ROB writes
system.switch_cpus.timesIdled                  489525                       # Number of times that the entire CPU went into an idle state and unscheduled itself
system.switch_cpus.idleCycles                31987296                       # Total number of cycles that the CPU has spent unscheduled due to idling
system.switch_cpus.committedInsts           848757582                       # Number of Instructions Simulated
system.switch_cpus.committedOps             848757582                       # Number of Ops (including micro ops) Simulated
system.switch_cpus.committedInsts_total     848757582                       # Number of Instructions Simulated
system.switch_cpus.cpi                       0.435593                       # CPI: Cycles Per Instruction
system.switch_cpus.cpi_total                 0.435593                       # CPI: Total CPI of All Threads
system.switch_cpus.ipc                       2.295719                       # IPC: Instructions Per Cycle
system.switch_cpus.ipc_total                 2.295719                       # IPC: Total IPC of All Threads
system.switch_cpus.int_regfile_reads        949650985                       # number of integer regfile reads
system.switch_cpus.int_regfile_writes       502206971                       # number of integer regfile writes
system.switch_cpus.fp_regfile_reads         277934329                       # number of floating regfile reads
system.switch_cpus.fp_regfile_writes        246488222                       # number of floating regfile writes
system.switch_cpus.misc_regfile_reads         8396474                       # number of misc regfile reads
system.switch_cpus.misc_regfile_writes           6255                       # number of misc regfile writes
system.l2.tags.replacements                    485092                       # number of replacements
system.l2.tags.tagsinuse                  7983.490229                       # Cycle average of tags in use
system.l2.tags.total_refs                      214108                       # Total number of references to valid blocks.
system.l2.tags.sampled_refs                    493260                       # Sample count of references to valid blocks.
system.l2.tags.avg_refs                      0.434067                       # Average number of references to valid blocks.
system.l2.tags.warmup_cycle                         0                       # Cycle when the warmup percentage was hit.
system.l2.tags.occ_blocks::writebacks     5528.239398                       # Average occupied blocks per requestor
system.l2.tags.occ_blocks::switch_cpus.inst     7.518083                       # Average occupied blocks per requestor
system.l2.tags.occ_blocks::switch_cpus.data  2446.741531                       # Average occupied blocks per requestor
system.l2.tags.occ_blocks::cpu.inst          0.786922                       # Average occupied blocks per requestor
system.l2.tags.occ_blocks::cpu.data          0.204296                       # Average occupied blocks per requestor
system.l2.tags.occ_percent::writebacks       0.674834                       # Average percentage of cache occupancy
system.l2.tags.occ_percent::switch_cpus.inst     0.000918                       # Average percentage of cache occupancy
system.l2.tags.occ_percent::switch_cpus.data     0.298675                       # Average percentage of cache occupancy
system.l2.tags.occ_percent::cpu.inst         0.000096                       # Average percentage of cache occupancy
system.l2.tags.occ_percent::cpu.data         0.000025                       # Average percentage of cache occupancy
system.l2.tags.occ_percent::total            0.974547                       # Average percentage of cache occupancy
system.l2.ReadReq_hits::switch_cpus.inst           74                       # number of ReadReq hits
system.l2.ReadReq_hits::switch_cpus.data       130299                       # number of ReadReq hits
system.l2.ReadReq_hits::total                  130373                       # number of ReadReq hits
system.l2.Writeback_hits::writebacks           329727                       # number of Writeback hits
system.l2.Writeback_hits::total                329727                       # number of Writeback hits
system.l2.ReadExReq_hits::switch_cpus.data        51808                       # number of ReadExReq hits
system.l2.ReadExReq_hits::total                 51808                       # number of ReadExReq hits
system.l2.demand_hits::switch_cpus.inst            74                       # number of demand (read+write) hits
system.l2.demand_hits::switch_cpus.data        182107                       # number of demand (read+write) hits
system.l2.demand_hits::total                   182181                       # number of demand (read+write) hits
system.l2.overall_hits::switch_cpus.inst           74                       # number of overall hits
system.l2.overall_hits::switch_cpus.data       182107                       # number of overall hits
system.l2.overall_hits::total                  182181                       # number of overall hits
system.l2.ReadReq_misses::switch_cpus.inst          976                       # number of ReadReq misses
system.l2.ReadReq_misses::switch_cpus.data       246037                       # number of ReadReq misses
system.l2.ReadReq_misses::total                247013                       # number of ReadReq misses
system.l2.ReadExReq_misses::switch_cpus.data       245987                       # number of ReadExReq misses
system.l2.ReadExReq_misses::total              245987                       # number of ReadExReq misses
system.l2.demand_misses::switch_cpus.inst          976                       # number of demand (read+write) misses
system.l2.demand_misses::switch_cpus.data       492024                       # number of demand (read+write) misses
system.l2.demand_misses::total                 493000                       # number of demand (read+write) misses
system.l2.overall_misses::switch_cpus.inst          976                       # number of overall misses
system.l2.overall_misses::switch_cpus.data       492024                       # number of overall misses
system.l2.overall_misses::total                493000                       # number of overall misses
system.l2.ReadReq_miss_latency::switch_cpus.inst     66370500                       # number of ReadReq miss cycles
system.l2.ReadReq_miss_latency::switch_cpus.data  15044520500                       # number of ReadReq miss cycles
system.l2.ReadReq_miss_latency::total     15110891000                       # number of ReadReq miss cycles
system.l2.ReadExReq_miss_latency::switch_cpus.data  15340591750                       # number of ReadExReq miss cycles
system.l2.ReadExReq_miss_latency::total   15340591750                       # number of ReadExReq miss cycles
system.l2.demand_miss_latency::switch_cpus.inst     66370500                       # number of demand (read+write) miss cycles
system.l2.demand_miss_latency::switch_cpus.data  30385112250                       # number of demand (read+write) miss cycles
system.l2.demand_miss_latency::total      30451482750                       # number of demand (read+write) miss cycles
system.l2.overall_miss_latency::switch_cpus.inst     66370500                       # number of overall miss cycles
system.l2.overall_miss_latency::switch_cpus.data  30385112250                       # number of overall miss cycles
system.l2.overall_miss_latency::total     30451482750                       # number of overall miss cycles
system.l2.ReadReq_accesses::switch_cpus.inst         1050                       # number of ReadReq accesses(hits+misses)
system.l2.ReadReq_accesses::switch_cpus.data       376336                       # number of ReadReq accesses(hits+misses)
system.l2.ReadReq_accesses::total              377386                       # number of ReadReq accesses(hits+misses)
system.l2.Writeback_accesses::writebacks       329727                       # number of Writeback accesses(hits+misses)
system.l2.Writeback_accesses::total            329727                       # number of Writeback accesses(hits+misses)
system.l2.ReadExReq_accesses::switch_cpus.data       297795                       # number of ReadExReq accesses(hits+misses)
system.l2.ReadExReq_accesses::total            297795                       # number of ReadExReq accesses(hits+misses)
system.l2.demand_accesses::switch_cpus.inst         1050                       # number of demand (read+write) accesses
[...]
system.cpu.icache.overall_mshr_hits::total          407                       # number of overall MSHR hits
system.cpu.icache.ReadReq_mshr_misses::switch_cpus.inst         1050                       # number of ReadReq MSHR misses
system.cpu.icache.ReadReq_mshr_misses::total         1050                       # number of ReadReq MSHR misses
system.cpu.icache.demand_mshr_misses::switch_cpus.inst         1050                       # number of demand (read+write) MSHR misses
system.cpu.icache.demand_mshr_misses::total         1050                       # number of demand (read+write) MSHR misses
system.cpu.icache.overall_mshr_misses::switch_cpus.inst         1050                       # number of overall MSHR misses
system.cpu.icache.overall_mshr_misses::total         1050                       # number of overall MSHR misses
system.cpu.icache.ReadReq_mshr_miss_latency::switch_cpus.inst     68171500                       # number of ReadReq MSHR miss cycles
system.cpu.icache.ReadReq_mshr_miss_latency::total     68171500                       # number of ReadReq MSHR miss cycles
system.cpu.icache.demand_mshr_miss_latency::switch_cpus.inst     68171500                       # number of demand (read+write) MSHR miss cycles
system.cpu.icache.demand_mshr_miss_latency::total     68171500                       # number of demand (read+write) MSHR miss cycles
system.cpu.icache.overall_mshr_miss_latency::switch_cpus.inst     68171500                       # number of overall MSHR miss cycles
system.cpu.icache.overall_mshr_miss_latency::total     68171500                       # number of overall MSHR miss cycles
system.cpu.icache.ReadReq_mshr_miss_rate::switch_cpus.inst     0.000014                       # mshr miss rate for ReadReq accesses
system.cpu.icache.ReadReq_mshr_miss_rate::total     0.000014                       # mshr miss rate for ReadReq accesses
system.cpu.icache.demand_mshr_miss_rate::switch_cpus.inst     0.000014                       # mshr miss rate for demand accesses
system.cpu.icache.demand_mshr_miss_rate::total     0.000014                       # mshr miss rate for demand accesses
system.cpu.icache.overall_mshr_miss_rate::switch_cpus.inst     0.000014                       # mshr miss rate for overall accesses
system.cpu.icache.overall_mshr_miss_rate::total     0.000014                       # mshr miss rate for overall accesses
system.cpu.icache.ReadReq_avg_mshr_miss_latency::switch_cpus.inst 64925.238095                       # average ReadReq mshr miss latency
system.cpu.icache.ReadReq_avg_mshr_miss_latency::total 64925.238095                       # average ReadReq mshr miss latency
system.cpu.icache.demand_avg_mshr_miss_latency::switch_cpus.inst 64925.238095                       # average overall mshr miss latency
system.cpu.icache.demand_avg_mshr_miss_latency::total 64925.238095                       # average overall mshr miss latency
system.cpu.icache.overall_avg_mshr_miss_latency::switch_cpus.inst 64925.238095                       # average overall mshr miss latency
system.cpu.icache.overall_avg_mshr_miss_latency::total 64925.238095                       # average overall mshr miss latency
system.cpu.icache.no_allocate_misses                0                       # Number of misses that were no-allocate
system.cpu.dcache.tags.replacements            673706                       # number of replacements
system.cpu.dcache.tags.tagsinuse           502.856015                       # Cycle average of tags in use
system.cpu.dcache.tags.total_refs           288279672                       # Total number of references to valid blocks.
system.cpu.dcache.tags.sampled_refs            674209                       # Sample count of references to valid blocks.
system.cpu.dcache.tags.avg_refs            427.582058                       # Average number of references to valid blocks.
system.cpu.dcache.tags.warmup_cycle                 0                       # Cycle when the warmup percentage was hit.
system.cpu.dcache.tags.occ_blocks::switch_cpus.data   502.839785                       # Average occupied blocks per requestor
system.cpu.dcache.tags.occ_blocks::cpu.data     0.016230                       # Average occupied blocks per requestor
system.cpu.dcache.tags.occ_percent::switch_cpus.data     0.982109                       # Average percentage of cache occupancy
system.cpu.dcache.tags.occ_percent::cpu.data     0.000032                       # Average percentage of cache occupancy
system.cpu.dcache.tags.occ_percent::total     0.982141                       # Average percentage of cache occupancy
system.cpu.dcache.ReadReq_hits::switch_cpus.data    208281379                       # number of ReadReq hits
system.cpu.dcache.ReadReq_hits::total       208281379                       # number of ReadReq hits
system.cpu.dcache.WriteReq_hits::switch_cpus.data     79993080                       # number of WriteReq hits
system.cpu.dcache.WriteReq_hits::total       79993080                       # number of WriteReq hits
system.cpu.dcache.LoadLockedReq_hits::switch_cpus.data         1585                       # number of LoadLockedReq hits
system.cpu.dcache.LoadLockedReq_hits::total         1585                       # number of LoadLockedReq hits
system.cpu.dcache.StoreCondReq_hits::switch_cpus.data         3127                       # number of StoreCondReq hits
system.cpu.dcache.StoreCondReq_hits::total         3127                       # number of StoreCondReq hits
system.cpu.dcache.demand_hits::switch_cpus.data    288274459                       # number of demand (read+write) hits
system.cpu.dcache.demand_hits::total        288274459                       # number of demand (read+write) hits
system.cpu.dcache.overall_hits::switch_cpus.data    288274459                       # number of overall hits
system.cpu.dcache.overall_hits::total       288274459                       # number of overall hits
system.cpu.dcache.ReadReq_misses::switch_cpus.data      1294964                       # number of ReadReq misses
system.cpu.dcache.ReadReq_misses::total       1294964                       # number of ReadReq misses
system.cpu.dcache.WriteReq_misses::switch_cpus.data      1050707                       # number of WriteReq misses
system.cpu.dcache.WriteReq_misses::total      1050707                       # number of WriteReq misses
system.cpu.dcache.LoadLockedReq_misses::switch_cpus.data         1542                       # number of LoadLockedReq misses
system.cpu.dcache.LoadLockedReq_misses::total         1542                       # number of LoadLockedReq misses
system.cpu.dcache.demand_misses::switch_cpus.data      2345671                       # number of demand (read+write) misses
system.cpu.dcache.demand_misses::total        2345671                       # number of demand (read+write) misses
system.cpu.dcache.overall_misses::switch_cpus.data      2345671                       # number of overall misses
system.cpu.dcache.overall_misses::total       2345671                       # number of overall misses
system.cpu.dcache.ReadReq_miss_latency::switch_cpus.data  57074417500                       # number of ReadReq miss cycles
system.cpu.dcache.ReadReq_miss_latency::total  57074417500                       # number of ReadReq miss cycles
system.cpu.dcache.WriteReq_miss_latency::switch_cpus.data  47096996736                       # number of WriteReq miss cycles
system.cpu.dcache.WriteReq_miss_latency::total  47096996736                       # number of WriteReq miss cycles
system.cpu.dcache.LoadLockedReq_miss_latency::switch_cpus.data     21152250                       # number of LoadLockedReq miss cycles
system.cpu.dcache.LoadLockedReq_miss_latency::total     21152250                       # number of LoadLockedReq miss cycles
system.cpu.dcache.demand_miss_latency::switch_cpus.data 104171414236                       # number of demand (read+write) miss cycles
system.cpu.dcache.demand_miss_latency::total 104171414236                       # number of demand (read+write) miss cycles
system.cpu.dcache.overall_miss_latency::switch_cpus.data 104171414236                       # number of overall miss cycles
system.cpu.dcache.overall_miss_latency::total 104171414236                       # number of overall miss cycles
system.cpu.dcache.ReadReq_accesses::switch_cpus.data    209576343                       # number of ReadReq accesses(hits+misses)
system.cpu.dcache.ReadReq_accesses::total    209576343                       # number of ReadReq accesses(hits+misses)
system.cpu.dcache.WriteReq_accesses::switch_cpus.data     81043787                       # number of WriteReq accesses(hits+misses)
system.cpu.dcache.WriteReq_accesses::total     81043787                       # number of WriteReq accesses(hits+misses)
system.cpu.dcache.LoadLockedReq_accesses::switch_cpus.data         3127                       # number of LoadLockedReq accesses(hits+misses)
system.cpu.dcache.LoadLockedReq_accesses::total         3127                       # number of LoadLockedReq accesses(hits+misses)
system.cpu.dcache.StoreCondReq_accesses::switch_cpus.data         3127                       # number of StoreCondReq accesses(hits+misses)
system.cpu.dcache.StoreCondReq_accesses::total         3127                       # number of StoreCondReq accesses(hits+misses)
system.cpu.dcache.demand_accesses::switch_cpus.data    290620130                       # number of demand (read+write) accesses
system.cpu.dcache.demand_accesses::total    290620130                       # number of demand (read+write) accesses
system.cpu.dcache.overall_accesses::switch_cpus.data    290620130                       # number of overall (read+write) accesses
system.cpu.dcache.overall_accesses::total    290620130                       # number of overall (read+write) accesses
system.cpu.dcache.ReadReq_miss_rate::switch_cpus.data     0.006179                       # miss rate for ReadReq accesses
system.cpu.dcache.ReadReq_miss_rate::total     0.006179                       # miss rate for ReadReq accesses
system.cpu.dcache.WriteReq_miss_rate::switch_cpus.data     0.012965                       # miss rate for WriteReq accesses
system.cpu.dcache.WriteReq_miss_rate::total     0.012965                       # miss rate for WriteReq accesses
system.cpu.dcache.LoadLockedReq_miss_rate::switch_cpus.data     0.493124                       # miss rate for LoadLockedReq accesses
system.cpu.dcache.LoadLockedReq_miss_rate::total     0.493124                       # miss rate for LoadLockedReq accesses
system.cpu.dcache.demand_miss_rate::switch_cpus.data     0.008071                       # miss rate for demand accesses
system.cpu.dcache.demand_miss_rate::total     0.008071                       # miss rate for demand accesses
system.cpu.dcache.overall_miss_rate::switch_cpus.data     0.008071                       # miss rate for overall accesses
system.cpu.dcache.overall_miss_rate::total     0.008071                       # miss rate for overall accesses
system.cpu.dcache.ReadReq_avg_miss_latency::switch_cpus.data 44074.134493                       # average ReadReq miss latency
system.cpu.dcache.ReadReq_avg_miss_latency::total 44074.134493                       # average ReadReq miss latency
system.cpu.dcache.WriteReq_avg_miss_latency::switch_cpus.data 44824.101044                       # average WriteReq miss latency
system.cpu.dcache.WriteReq_avg_miss_latency::total 44824.101044                       # average WriteReq miss latency
system.cpu.dcache.LoadLockedReq_avg_miss_latency::switch_cpus.data 13717.412451                       # average LoadLockedReq miss latency
system.cpu.dcache.LoadLockedReq_avg_miss_latency::total 13717.412451                       # average LoadLockedReq miss latency
system.cpu.dcache.demand_avg_miss_latency::switch_cpus.data 44410.070396                       # average overall miss latency
system.cpu.dcache.demand_avg_miss_latency::total 44410.070396                       # average overall miss latency
system.cpu.dcache.overall_avg_miss_latency::switch_cpus.data 44410.070396                       # average overall miss latency
system.cpu.dcache.overall_avg_miss_latency::total 44410.070396                       # average overall miss latency
system.cpu.dcache.blocked_cycles::no_mshrs         5767                       # number of cycles access was blocked
system.cpu.dcache.blocked_cycles::no_targets            0                       # number of cycles access was blocked
system.cpu.dcache.blocked::no_mshrs               181                       # number of cycles access was blocked
system.cpu.dcache.blocked::no_targets               0                       # number of cycles access was blocked
system.cpu.dcache.avg_blocked_cycles::no_mshrs    31.861878                       # average number of cycles each access was blocked
system.cpu.dcache.avg_blocked_cycles::no_targets          nan                       # average number of cycles each access was blocked
system.cpu.dcache.fast_writes                       0                       # number of fast writes performed
system.cpu.dcache.cache_copies                      0                       # number of cache copies performed
system.cpu.dcache.writebacks::writebacks       329727                       # number of writebacks
system.cpu.dcache.writebacks::total            329727                       # number of writebacks
system.cpu.dcache.ReadReq_mshr_hits::switch_cpus.data       918629                       # number of ReadReq MSHR hits
system.cpu.dcache.ReadReq_mshr_hits::total       918629                       # number of ReadReq MSHR hits
system.cpu.dcache.WriteReq_mshr_hits::switch_cpus.data       752912                       # number of WriteReq MSHR hits
system.cpu.dcache.WriteReq_mshr_hits::total       752912                       # number of WriteReq MSHR hits
system.cpu.dcache.LoadLockedReq_mshr_hits::switch_cpus.data         1541                       # number of LoadLockedReq MSHR hits
system.cpu.dcache.LoadLockedReq_mshr_hits::total         1541                       # number of LoadLockedReq MSHR hits
system.cpu.dcache.demand_mshr_hits::switch_cpus.data      1671541                       # number of demand (read+write) MSHR hits
system.cpu.dcache.demand_mshr_hits::total      1671541                       # number of demand (read+write) MSHR hits
system.cpu.dcache.overall_mshr_hits::switch_cpus.data      1671541                       # number of overall MSHR hits
system.cpu.dcache.overall_mshr_hits::total      1671541                       # number of overall MSHR hits
system.cpu.dcache.ReadReq_mshr_misses::switch_cpus.data       376335                       # number of ReadReq MSHR misses
system.cpu.dcache.ReadReq_mshr_misses::total       376335                       # number of ReadReq MSHR misses
system.cpu.dcache.WriteReq_mshr_misses::switch_cpus.data       297795                       # number of WriteReq MSHR misses
system.cpu.dcache.WriteReq_mshr_misses::total       297795                       # number of WriteReq MSHR misses
system.cpu.dcache.LoadLockedReq_mshr_misses::switch_cpus.data            1                       # number of LoadLockedReq MSHR misses
system.cpu.dcache.LoadLockedReq_mshr_misses::total            1                       # number of LoadLockedReq MSHR misses
system.cpu.dcache.demand_mshr_misses::switch_cpus.data       674130                       # number of demand (read+write) MSHR misses
system.cpu.dcache.demand_mshr_misses::total       674130                       # number of demand (read+write) MSHR misses
system.cpu.dcache.overall_mshr_misses::switch_cpus.data       674130                       # number of overall MSHR misses
system.cpu.dcache.overall_mshr_misses::total       674130                       # number of overall MSHR misses
system.cpu.dcache.ReadReq_mshr_miss_latency::switch_cpus.data  16728878750                       # number of ReadReq MSHR miss cycles
system.cpu.dcache.ReadReq_mshr_miss_latency::total  16728878750                       # number of ReadReq MSHR miss cycles
system.cpu.dcache.WriteReq_mshr_miss_latency::switch_cpus.data  16161722749                       # number of WriteReq MSHR miss cycles
system.cpu.dcache.WriteReq_mshr_miss_latency::total  16161722749                       # number of WriteReq MSHR miss cycles
system.cpu.dcache.LoadLockedReq_mshr_miss_latency::switch_cpus.data        61250                       # number of LoadLockedReq MSHR miss cycles
system.cpu.dcache.LoadLockedReq_mshr_miss_latency::total        61250                       # number of LoadLockedReq MSHR miss cycles
system.cpu.dcache.demand_mshr_miss_latency::switch_cpus.data  32890601499                       # number of demand (read+write) MSHR miss cycles
system.cpu.dcache.demand_mshr_miss_latency::total  32890601499                       # number of demand (read+write) MSHR miss cycles
system.cpu.dcache.overall_mshr_miss_latency::switch_cpus.data  32890601499                       # number of overall MSHR miss cycles
system.cpu.dcache.overall_mshr_miss_latency::total  32890601499                       # number of overall MSHR miss cycles
system.cpu.dcache.ReadReq_mshr_miss_rate::switch_cpus.data     0.001796                       # mshr miss rate for ReadReq accesses
system.cpu.dcache.ReadReq_mshr_miss_rate::total     0.001796                       # mshr miss rate for ReadReq accesses
system.cpu.dcache.WriteReq_mshr_miss_rate::switch_cpus.data     0.003674                       # mshr miss rate for WriteReq accesses
system.cpu.dcache.WriteReq_mshr_miss_rate::total     0.003674                       # mshr miss rate for WriteReq accesses
system.cpu.dcache.LoadLockedReq_mshr_miss_rate::switch_cpus.data     0.000320                       # mshr miss rate for LoadLockedReq accesses
system.cpu.dcache.LoadLockedReq_mshr_miss_rate::total     0.000320                       # mshr miss rate for LoadLockedReq accesses
system.cpu.dcache.demand_mshr_miss_rate::switch_cpus.data     0.002320                       # mshr miss rate for demand accesses
system.cpu.dcache.demand_mshr_miss_rate::total     0.002320                       # mshr miss rate for demand accesses
system.cpu.dcache.overall_mshr_miss_rate::switch_cpus.data     0.002320                       # mshr miss rate for overall accesses
system.cpu.dcache.overall_mshr_miss_rate::total     0.002320                       # mshr miss rate for overall accesses
system.cpu.dcache.ReadReq_avg_mshr_miss_latency::switch_cpus.data 44452.093879                       # average ReadReq mshr miss latency
system.cpu.dcache.ReadReq_avg_mshr_miss_latency::total 44452.093879                       # average ReadReq mshr miss latency
system.cpu.dcache.WriteReq_avg_mshr_miss_latency::switch_cpus.data 54271.303242                       # average WriteReq mshr miss latency
system.cpu.dcache.WriteReq_avg_mshr_miss_latency::total 54271.303242                       # average WriteReq mshr miss latency
system.cpu.dcache.LoadLockedReq_avg_mshr_miss_latency::switch_cpus.data        61250                       # average LoadLockedReq mshr miss latency
system.cpu.dcache.LoadLockedReq_avg_mshr_miss_latency::total        61250                       # average LoadLockedReq mshr miss latency
system.cpu.dcache.demand_avg_mshr_miss_latency::switch_cpus.data 48789.701540                       # average overall mshr miss latency
system.cpu.dcache.demand_avg_mshr_miss_latency::total 48789.701540                       # average overall mshr miss latency
system.cpu.dcache.overall_avg_mshr_miss_latency::switch_cpus.data 48789.701540                       # average overall mshr miss latency
system.cpu.dcache.overall_avg_mshr_miss_latency::total 48789.701540                       # average overall mshr miss latency
system.cpu.dcache.no_allocate_misses                0                       # Number of misses that were no-allocate

---------- End Simulation Statistics   ----------
