
---------- Begin Simulation Statistics ----------
sim_seconds                                  0.184943                       # Number of seconds simulated
sim_ticks                                184942715000                       # Number of ticks simulated
final_tick                               184944425500                       # Number of ticks from beginning of simulation (restored from checkpoints and never reset)
sim_freq                                 1000000000000                       # Frequency of simulated ticks
host_inst_rate                                  58028                       # Simulator instruction rate (inst/s)
host_op_rate                                    58028                       # Simulator op (including micro ops) rate (op/s)
host_tick_rate                               12644071                       # Simulator tick rate (ticks/s)
host_mem_usage                                 750384                       # Number of bytes of host memory used
host_seconds                                 14626.83                       # Real time elapsed on the host
sim_insts                                   848760841                       # Number of instructions simulated
sim_ops                                     848760841                       # Number of ops (including micro ops) simulated
system.physmem.bytes_read::switch_cpus.inst        62592                       # Number of bytes read from this memory
system.physmem.bytes_read::switch_cpus.data     31489536                       # Number of bytes read from this memory
system.physmem.bytes_read::total             31552128                       # Number of bytes read from this memory
system.physmem.bytes_inst_read::switch_cpus.inst        62592                       # Number of instructions bytes read from this memory
system.physmem.bytes_inst_read::total           62592                       # Number of instructions bytes read from this memory
system.physmem.bytes_written::writebacks     15738112                       # Number of bytes written to this memory
system.physmem.bytes_written::total          15738112                       # Number of bytes written to this memory
system.physmem.num_reads::switch_cpus.inst          978                       # Number of read requests responded to by this memory
system.physmem.num_reads::switch_cpus.data       492024                       # Number of read requests responded to by this memory
system.physmem.num_reads::total                493002                       # Number of read requests responded to by this memory
system.physmem.num_writes::writebacks          245908                       # Number of write requests responded to by this memory
system.physmem.num_writes::total               245908                       # Number of write requests responded to by this memory
system.physmem.bw_read::switch_cpus.inst       338440                       # Total read bandwidth from this memory (bytes/s)
system.physmem.bw_read::switch_cpus.data    170266431                       # Total read bandwidth from this memory (bytes/s)
system.physmem.bw_read::total               170604871                       # Total read bandwidth from this memory (bytes/s)
system.physmem.bw_inst_read::switch_cpus.inst       338440                       # Instruction read bandwidth from this memory (bytes/s)
system.physmem.bw_inst_read::total             338440                       # Instruction read bandwidth from this memory (bytes/s)
system.physmem.bw_write::writebacks          85097226                       # Write bandwidth from this memory (bytes/s)
system.physmem.bw_write::total               85097226                       # Write bandwidth from this memory (bytes/s)
system.physmem.bw_total::writebacks          85097226                       # Total bandwidth to/from this memory (bytes/s)
system.physmem.bw_total::switch_cpus.inst       338440                       # Total bandwidth to/from this memory (bytes/s)
system.physmem.bw_total::switch_cpus.data    170266431                       # Total bandwidth to/from this memory (bytes/s)
system.physmem.bw_total::total              255702097                       # Total bandwidth to/from this memory (bytes/s)
system.physmem.readReqs                        493003                       # Total number of read requests seen
system.physmem.writeReqs                       245908                       # Total number of write requests seen
system.physmem.cpureqs                         738911                       # Reqs generatd by CPU via cache - shady
system.physmem.bytesRead                     31552128                       # Total number of bytes read from memory
system.physmem.bytesWritten                  15738112                       # Total number of bytes written to memory
system.physmem.bytesConsumedRd               31552128                       # bytesRead derated as per pkt->getSize()
system.physmem.bytesConsumedWr               15738112                       # bytesWritten derated as per pkt->getSize()
system.physmem.servicedByWrQ                       15                       # Number of read reqs serviced by write Q
system.physmem.neitherReadNorWrite                  0                       # Reqs where no action is needed
system.physmem.perBankRdReqs::0                 30897                       # Track reads on a per bank basis
system.physmem.perBankRdReqs::1                 30792                       # Track reads on a per bank basis
system.physmem.perBankRdReqs::2                 30865                       # Track reads on a per bank basis
system.physmem.perBankRdReqs::3                 30735                       # Track reads on a per bank basis
system.physmem.perBankRdReqs::4                 30763                       # Track reads on a per bank basis
system.physmem.perBankRdReqs::5                 30769                       # Track reads on a per bank basis
system.physmem.perBankRdReqs::6                 30767                       # Track reads on a per bank basis
system.physmem.perBankRdReqs::7                 30810                       # Track reads on a per bank basis
system.physmem.perBankRdReqs::8                 30747                       # Track reads on a per bank basis
system.physmem.perBankRdReqs::9                 30760                       # Track reads on a per bank basis
system.physmem.perBankRdReqs::10                30766                       # Track reads on a per bank basis
system.physmem.perBankRdReqs::11                30881                       # Track reads on a per bank basis
system.physmem.perBankRdReqs::12                30909                       # Track reads on a per bank basis
system.physmem.perBankRdReqs::13                30854                       # Track reads on a per bank basis
system.physmem.perBankRdReqs::14                30770                       # Track reads on a per bank basis
system.physmem.perBankRdReqs::15                30903                       # Track reads on a per bank basis
system.physmem.perBankWrReqs::0                 15361                       # Track writes on a per bank basis
system.physmem.perBankWrReqs::1                 15361                       # Track writes on a per bank basis
system.physmem.perBankWrReqs::2                 15360                       # Track writes on a per bank basis
system.physmem.perBankWrReqs::3                 15360                       # Track writes on a per bank basis
system.physmem.perBankWrReqs::4                 15368                       # Track writes on a per bank basis
system.physmem.perBankWrReqs::5                 15406                       # Track writes on a per bank basis
system.physmem.perBankWrReqs::6                 15360                       # Track writes on a per bank basis
system.physmem.perBankWrReqs::7                 15360                       # Track writes on a per bank basis
system.physmem.perBankWrReqs::8                 15360                       # Track writes on a per bank basis
system.physmem.perBankWrReqs::9                 15360                       # Track writes on a per bank basis
system.physmem.perBankWrReqs::10                15361                       # Track writes on a per bank basis
system.physmem.perBankWrReqs::11                15410                       # Track writes on a per bank basis
system.physmem.perBankWrReqs::12                15395                       # Track writes on a per bank basis
system.physmem.perBankWrReqs::13                15360                       # Track writes on a per bank basis
system.physmem.perBankWrReqs::14                15366                       # Track writes on a per bank basis
system.physmem.perBankWrReqs::15                15360                       # Track writes on a per bank basis
system.physmem.numRdRetry                           0                       # Number of times rd buffer was full causing retry
system.physmem.numWrRetry                           0                       # Number of times wr buffer was full causing retry
system.physmem.totGap                    184942685000                       # Total gap between requests
system.physmem.readPktSize::0                       0                       # Categorize read packet sizes
system.physmem.readPktSize::1                       0                       # Categorize read packet sizes
system.physmem.readPktSize::2                       0                       # Categorize read packet sizes
system.physmem.readPktSize::3                       0                       # Categorize read packet sizes
system.physmem.readPktSize::4                       0                       # Categorize read packet sizes
system.physmem.readPktSize::5                       0                       # Categorize read packet sizes
system.physmem.readPktSize::6                  493003                       # Categorize read packet sizes
system.physmem.writePktSize::0                      0                       # Categorize write packet sizes
system.physmem.writePktSize::1                      0                       # Categorize write packet sizes
system.physmem.writePktSize::2                      0                       # Categorize write packet sizes
system.physmem.writePktSize::3                      0                       # Categorize write packet sizes
system.physmem.writePktSize::4                      0                       # Categorize write packet sizes
system.physmem.writePktSize::5                      0                       # Categorize write packet sizes
system.physmem.writePktSize::6                 245908                       # Categorize write packet sizes
system.physmem.rdQLenPdf::0                    492430                       # What read queue length does an incoming req see
system.physmem.rdQLenPdf::1                       422                       # What read queue length does an incoming req see
system.physmem.rdQLenPdf::2                       109                       # What read queue length does an incoming req see
system.physmem.rdQLenPdf::3                        25                       # What read queue length does an incoming req see
system.physmem.rdQLenPdf::4                         2                       # What read queue length does an incoming req see
system.physmem.rdQLenPdf::5                         0                       # What read queue length does an incoming req see
system.physmem.rdQLenPdf::6                         0                       # What read queue length does an incoming req see
system.physmem.rdQLenPdf::7                         0                       # What read queue length does an incoming req see
system.physmem.rdQLenPdf::8                         0                       # What read queue length does an incoming req see
system.physmem.rdQLenPdf::9                         0                       # What read queue length does an incoming req see
system.physmem.rdQLenPdf::10                        0                       # What read queue length does an incoming req see
system.physmem.rdQLenPdf::11                        0                       # What read queue length does an incoming req see
system.physmem.rdQLenPdf::12                        0                       # What read queue length does an incoming req see
system.physmem.rdQLenPdf::13                        0                       # What read queue length does an incoming req see
system.physmem.rdQLenPdf::14                        0                       # What read queue length does an incoming req see
system.physmem.rdQLenPdf::15                        0                       # What read queue length does an incoming req see
system.physmem.rdQLenPdf::16                        0                       # What read queue length does an incoming req see
system.physmem.rdQLenPdf::17                        0                       # What read queue length does an incoming req see
system.physmem.rdQLenPdf::18                        0                       # What read queue length does an incoming req see
system.physmem.rdQLenPdf::19                        0                       # What read queue length does an incoming req see
system.physmem.rdQLenPdf::20                        0                       # What read queue length does an incoming req see
system.physmem.rdQLenPdf::21                        0                       # What read queue length does an incoming req see
system.physmem.rdQLenPdf::22                        0                       # What read queue length does an incoming req see
system.physmem.rdQLenPdf::23                        0                       # What read queue length does an incoming req see
system.physmem.rdQLenPdf::24                        0                       # What read queue length does an incoming req see
system.physmem.rdQLenPdf::25                        0                       # What read queue length does an incoming req see
system.physmem.rdQLenPdf::26                        0                       # What read queue length does an incoming req see
system.physmem.rdQLenPdf::27                        0                       # What read queue length does an incoming req see
system.physmem.rdQLenPdf::28                        0                       # What read queue length does an incoming req see
system.physmem.rdQLenPdf::29                        0                       # What read queue length does an incoming req see
system.physmem.rdQLenPdf::30                        0                       # What read queue length does an incoming req see
system.physmem.rdQLenPdf::31                        0                       # What read queue length does an incoming req see
system.physmem.wrQLenPdf::0                     10684                       # What write queue length does an incoming req see
system.physmem.wrQLenPdf::1                     10692                       # What write queue length does an incoming req see
system.physmem.wrQLenPdf::2                     10692                       # What write queue length does an incoming req see
system.physmem.wrQLenPdf::3                     10692                       # What write queue length does an incoming req see
system.physmem.wrQLenPdf::4                     10692                       # What write queue length does an incoming req see
system.physmem.wrQLenPdf::5                     10692                       # What write queue length does an incoming req see
system.physmem.wrQLenPdf::6                     10692                       # What write queue length does an incoming req see
system.physmem.wrQLenPdf::7                     10692                       # What write queue length does an incoming req see
system.physmem.wrQLenPdf::8                     10692                       # What write queue length does an incoming req see
system.physmem.wrQLenPdf::9                     10692                       # What write queue length does an incoming req see
system.physmem.wrQLenPdf::10                    10692                       # What write queue length does an incoming req see
system.physmem.wrQLenPdf::11                    10692                       # What write queue length does an incoming req see
system.physmem.wrQLenPdf::12                    10692                       # What write queue length does an incoming req see
system.physmem.wrQLenPdf::13                    10692                       # What write queue length does an incoming req see
system.physmem.wrQLenPdf::14                    10692                       # What write queue length does an incoming req see
system.physmem.wrQLenPdf::15                    10691                       # What write queue length does an incoming req see
system.physmem.wrQLenPdf::16                    10691                       # What write queue length does an incoming req see
system.physmem.wrQLenPdf::17                    10691                       # What write queue length does an incoming req see
system.physmem.wrQLenPdf::18                    10691                       # What write queue length does an incoming req see
system.physmem.wrQLenPdf::19                    10691                       # What write queue length does an incoming req see
system.physmem.wrQLenPdf::20                    10691                       # What write queue length does an incoming req see
system.physmem.wrQLenPdf::21                    10691                       # What write queue length does an incoming req see
system.physmem.wrQLenPdf::22                    10691                       # What write queue length does an incoming req see
system.physmem.wrQLenPdf::23                        8                       # What write queue length does an incoming req see
system.physmem.wrQLenPdf::24                        0                       # What write queue length does an incoming req see
system.physmem.wrQLenPdf::25                        0                       # What write queue length does an incoming req see
system.physmem.wrQLenPdf::26                        0                       # What write queue length does an incoming req see
system.physmem.wrQLenPdf::27                        0                       # What write queue length does an incoming req see
system.physmem.wrQLenPdf::28                        0                       # What write queue length does an incoming req see
system.physmem.wrQLenPdf::29                        0                       # What write queue length does an incoming req see
system.physmem.wrQLenPdf::30                        0                       # What write queue length does an incoming req see
system.physmem.wrQLenPdf::31                        0                       # What write queue length does an incoming req see
system.physmem.bytesPerActivate::samples        35532                       # Bytes accessed per row activation
system.physmem.bytesPerActivate::mean     1329.426545                       # Bytes accessed per row activation
system.physmem.bytesPerActivate::gmean     626.152977                       # Bytes accessed per row activation
system.physmem.bytesPerActivate::stdev    1966.698556                       # Bytes accessed per row activation
system.physmem.bytesPerActivate::64-65           4215     11.86%     11.86% # Bytes accessed per row activation
system.physmem.bytesPerActivate::128-129         3576     10.06%     21.93% # Bytes accessed per row activation
system.physmem.bytesPerActivate::192-193          521      1.47%     23.39% # Bytes accessed per row activation
system.physmem.bytesPerActivate::256-257          549      1.55%     24.94% # Bytes accessed per row activation
system.physmem.bytesPerActivate::320-321          570      1.60%     26.54% # Bytes accessed per row activation
system.physmem.bytesPerActivate::384-385          676      1.90%     28.44% # Bytes accessed per row activation
system.physmem.bytesPerActivate::448-449         1605      4.52%     32.96% # Bytes accessed per row activation
system.physmem.bytesPerActivate::512-513         2404      6.77%     39.73% # Bytes accessed per row activation
system.physmem.bytesPerActivate::576-577          657      1.85%     41.58% # Bytes accessed per row activation
system.physmem.bytesPerActivate::640-641          603      1.70%     43.27% # Bytes accessed per row activation
system.physmem.bytesPerActivate::704-705          454      1.28%     44.55% # Bytes accessed per row activation
system.physmem.bytesPerActivate::768-769          540      1.52%     46.07% # Bytes accessed per row activation
system.physmem.bytesPerActivate::832-833          511      1.44%     47.51% # Bytes accessed per row activation
system.physmem.bytesPerActivate::896-897          810      2.28%     49.79% # Bytes accessed per row activation
system.physmem.bytesPerActivate::960-961         3422      9.63%     59.42% # Bytes accessed per row activation
system.physmem.bytesPerActivate::1024-1025         2092      5.89%     65.31% # Bytes accessed per row activation
system.physmem.bytesPerActivate::1088-1089          513      1.44%     66.75% # Bytes accessed per row activation
system.physmem.bytesPerActivate::1152-1153          546      1.54%     68.29% # Bytes accessed per row activation
system.physmem.bytesPerActivate::1216-1217          428      1.20%     69.49% # Bytes accessed per row activation
system.physmem.bytesPerActivate::1280-1281          517      1.46%     70.95% # Bytes accessed per row activation
system.physmem.bytesPerActivate::1344-1345          569      1.60%     72.55% # Bytes accessed per row activation
system.physmem.bytesPerActivate::1408-1409          740      2.08%     74.63% # Bytes accessed per row activation
system.physmem.bytesPerActivate::1472-1473         4840     13.62%     88.25% # Bytes accessed per row activation
system.physmem.bytesPerActivate::1536-1537          158      0.44%     88.70% # Bytes accessed per row activation
system.physmem.bytesPerActivate::1600-1601          133      0.37%     89.07% # Bytes accessed per row activation
system.physmem.bytesPerActivate::1664-1665           85      0.24%     89.31% # Bytes accessed per row activation
system.physmem.bytesPerActivate::1728-1729           78      0.22%     89.53% # Bytes accessed per row activation
system.physmem.bytesPerActivate::1792-1793           73      0.21%     89.74% # Bytes accessed per row activation
system.physmem.bytesPerActivate::1856-1857           59      0.17%     89.90% # Bytes accessed per row activation
system.physmem.bytesPerActivate::1920-1921           69      0.19%     90.10% # Bytes accessed per row activation
system.physmem.bytesPerActivate::1984-1985           81      0.23%     90.32% # Bytes accessed per row activation
system.physmem.bytesPerActivate::2048-2049           44      0.12%     90.45% # Bytes accessed per row activation
system.physmem.bytesPerActivate::2112-2113           84      0.24%     90.68% # Bytes accessed per row activation
system.physmem.bytesPerActivate::2176-2177           33      0.09%     90.78% # Bytes accessed per row activation
system.physmem.bytesPerActivate::2240-2241           30      0.08%     90.86% # Bytes accessed per row activation
system.physmem.bytesPerActivate::2304-2305           42      0.12%     90.98% # Bytes accessed per row activation
system.physmem.bytesPerActivate::2368-2369           32      0.09%     91.07% # Bytes accessed per row activation
system.physmem.bytesPerActivate::2432-2433           22      0.06%     91.13% # Bytes accessed per row activation
system.physmem.bytesPerActivate::2496-2497           33      0.09%     91.22% # Bytes accessed per row activation
system.physmem.bytesPerActivate::2560-2561           17      0.05%     91.27% # Bytes accessed per row activation
system.physmem.bytesPerActivate::2624-2625           16      0.05%     91.32% # Bytes accessed per row activation
system.physmem.bytesPerActivate::2688-2689           14      0.04%     91.36% # Bytes accessed per row activation
system.physmem.bytesPerActivate::2752-2753           26      0.07%     91.43% # Bytes accessed per row activation
system.physmem.bytesPerActivate::2816-2817           20      0.06%     91.49% # Bytes accessed per row activation
system.physmem.bytesPerActivate::2880-2881            9      0.03%     91.51% # Bytes accessed per row activation
system.physmem.bytesPerActivate::2944-2945           27      0.08%     91.59% # Bytes accessed per row activation
system.physmem.bytesPerActivate::3008-3009           12      0.03%     91.62% # Bytes accessed per row activation
system.physmem.bytesPerActivate::3072-3073           12      0.03%     91.66% # Bytes accessed per row activation
system.physmem.bytesPerActivate::3136-3137           12      0.03%     91.69% # Bytes accessed per row activation
system.physmem.bytesPerActivate::3200-3201            8      0.02%     91.71% # Bytes accessed per row activation
system.physmem.bytesPerActivate::3264-3265            7      0.02%     91.73% # Bytes accessed per row activation
system.physmem.bytesPerActivate::3328-3329            9      0.03%     91.76% # Bytes accessed per row activation
system.physmem.bytesPerActivate::3392-3393           14      0.04%     91.80% # Bytes accessed per row activation
system.physmem.bytesPerActivate::3456-3457           12      0.03%     91.83% # Bytes accessed per row activation
system.physmem.bytesPerActivate::3520-3521           11      0.03%     91.86% # Bytes accessed per row activation
system.physmem.bytesPerActivate::3584-3585           10      0.03%     91.89% # Bytes accessed per row activation
system.physmem.bytesPerActivate::3648-3649           10      0.03%     91.92% # Bytes accessed per row activation
system.physmem.bytesPerActivate::3712-3713           10      0.03%     91.95% # Bytes accessed per row activation
system.physmem.bytesPerActivate::3776-3777           10      0.03%     91.97% # Bytes accessed per row activation
system.physmem.bytesPerActivate::3840-3841           10      0.03%     92.00% # Bytes accessed per row activation
system.physmem.bytesPerActivate::3904-3905           17      0.05%     92.05% # Bytes accessed per row activation
system.physmem.bytesPerActivate::3968-3969            9      0.03%     92.07% # Bytes accessed per row activation
system.physmem.bytesPerActivate::4032-4033           40      0.11%     92.19% # Bytes accessed per row activation
system.physmem.bytesPerActivate::4096-4097           29      0.08%     92.27% # Bytes accessed per row activation
system.physmem.bytesPerActivate::4160-4161           38      0.11%     92.38% # Bytes accessed per row activation
system.physmem.bytesPerActivate::4224-4225            9      0.03%     92.40% # Bytes accessed per row activation
system.physmem.bytesPerActivate::4288-4289           13      0.04%     92.44% # Bytes accessed per row activation
system.physmem.bytesPerActivate::4352-4353           14      0.04%     92.48% # Bytes accessed per row activation
system.physmem.bytesPerActivate::4416-4417           12      0.03%     92.51% # Bytes accessed per row activation
system.physmem.bytesPerActivate::4480-4481           13      0.04%     92.55% # Bytes accessed per row activation
system.physmem.bytesPerActivate::4544-4545            7      0.02%     92.57% # Bytes accessed per row activation
system.physmem.bytesPerActivate::4608-4609           10      0.03%     92.60% # Bytes accessed per row activation
system.physmem.bytesPerActivate::4672-4673            7      0.02%     92.62% # Bytes accessed per row activation
system.physmem.bytesPerActivate::4736-4737            9      0.03%     92.64% # Bytes accessed per row activation
system.physmem.bytesPerActivate::4800-4801            9      0.03%     92.67% # Bytes accessed per row activation
system.physmem.bytesPerActivate::4864-4865            9      0.03%     92.69% # Bytes accessed per row activation
system.physmem.bytesPerActivate::4928-4929            7      0.02%     92.71% # Bytes accessed per row activation
system.physmem.bytesPerActivate::4992-4993            6      0.02%     92.73% # Bytes accessed per row activation
system.physmem.bytesPerActivate::5056-5057            9      0.03%     92.75% # Bytes accessed per row activation
system.physmem.bytesPerActivate::5120-5121            2      0.01%     92.76% # Bytes accessed per row activation
system.physmem.bytesPerActivate::5184-5185            3      0.01%     92.77% # Bytes accessed per row activation
system.physmem.bytesPerActivate::5248-5249            5      0.01%     92.78% # Bytes accessed per row activation
system.physmem.bytesPerActivate::5312-5313            4      0.01%     92.79% # Bytes accessed per row activation
system.physmem.bytesPerActivate::5376-5377            6      0.02%     92.81% # Bytes accessed per row activation
system.physmem.bytesPerActivate::5440-5441            5      0.01%     92.82% # Bytes accessed per row activation
system.physmem.bytesPerActivate::5504-5505            4      0.01%     92.83% # Bytes accessed per row activation
system.physmem.bytesPerActivate::5568-5569            3      0.01%     92.84% # Bytes accessed per row activation
system.physmem.bytesPerActivate::5632-5633            2      0.01%     92.85% # Bytes accessed per row activation
system.physmem.bytesPerActivate::5696-5697           12      0.03%     92.88% # Bytes accessed per row activation
system.physmem.bytesPerActivate::5760-5761            7      0.02%     92.90% # Bytes accessed per row activation
system.physmem.bytesPerActivate::5824-5825            8      0.02%     92.92% # Bytes accessed per row activation
system.physmem.bytesPerActivate::5888-5889            8      0.02%     92.95% # Bytes accessed per row activation
system.physmem.bytesPerActivate::5952-5953            4      0.01%     92.96% # Bytes accessed per row activation
system.physmem.bytesPerActivate::6016-6017            9      0.03%     92.98% # Bytes accessed per row activation
system.physmem.bytesPerActivate::6080-6081           34      0.10%     93.08% # Bytes accessed per row activation
system.physmem.bytesPerActivate::6144-6145            6      0.02%     93.10% # Bytes accessed per row activation
system.physmem.bytesPerActivate::6208-6209           31      0.09%     93.18% # Bytes accessed per row activation
system.physmem.bytesPerActivate::6272-6273            7      0.02%     93.20% # Bytes accessed per row activation
system.physmem.bytesPerActivate::6336-6337           12      0.03%     93.24% # Bytes accessed per row activation
system.physmem.bytesPerActivate::6400-6401           11      0.03%     93.27% # Bytes accessed per row activation
system.physmem.bytesPerActivate::6464-6465            5      0.01%     93.28% # Bytes accessed per row activation
system.physmem.bytesPerActivate::6528-6529           10      0.03%     93.31% # Bytes accessed per row activation
system.physmem.bytesPerActivate::6592-6593            5      0.01%     93.32% # Bytes accessed per row activation
system.physmem.bytesPerActivate::6656-6657            7      0.02%     93.34% # Bytes accessed per row activation
system.physmem.bytesPerActivate::6720-6721            7      0.02%     93.36% # Bytes accessed per row activation
system.physmem.bytesPerActivate::6784-6785           12      0.03%     93.40% # Bytes accessed per row activation
system.physmem.bytesPerActivate::6848-6849            3      0.01%     93.41% # Bytes accessed per row activation
system.physmem.bytesPerActivate::6912-6913            6      0.02%     93.42% # Bytes accessed per row activation
system.physmem.bytesPerActivate::6976-6977            9      0.03%     93.45% # Bytes accessed per row activation
system.physmem.bytesPerActivate::7040-7041            8      0.02%     93.47% # Bytes accessed per row activation
system.physmem.bytesPerActivate::7104-7105           10      0.03%     93.50% # Bytes accessed per row activation
system.physmem.bytesPerActivate::7168-7169            6      0.02%     93.52% # Bytes accessed per row activation
system.physmem.bytesPerActivate::7232-7233            7      0.02%     93.54% # Bytes accessed per row activation
system.physmem.bytesPerActivate::7296-7297            8      0.02%     93.56% # Bytes accessed per row activation
system.physmem.bytesPerActivate::7360-7361            7      0.02%     93.58% # Bytes accessed per row activation
system.physmem.bytesPerActivate::7424-7425            7      0.02%     93.60% # Bytes accessed per row activation
system.physmem.bytesPerActivate::7488-7489            7      0.02%     93.62% # Bytes accessed per row activation
system.physmem.bytesPerActivate::7552-7553            6      0.02%     93.63% # Bytes accessed per row activation
system.physmem.bytesPerActivate::7616-7617           10      0.03%     93.66% # Bytes accessed per row activation
system.physmem.bytesPerActivate::7680-7681           12      0.03%     93.70% # Bytes accessed per row activation
system.physmem.bytesPerActivate::7744-7745            3      0.01%     93.70% # Bytes accessed per row activation
system.physmem.bytesPerActivate::7808-7809            8      0.02%     93.73% # Bytes accessed per row activation
system.physmem.bytesPerActivate::7872-7873            9      0.03%     93.75% # Bytes accessed per row activation
system.physmem.bytesPerActivate::7936-7937            3      0.01%     93.76% # Bytes accessed per row activation
system.physmem.bytesPerActivate::8000-8001            9      0.03%     93.79% # Bytes accessed per row activation
system.physmem.bytesPerActivate::8064-8065           17      0.05%     93.83% # Bytes accessed per row activation
system.physmem.bytesPerActivate::8128-8129           33      0.09%     93.93% # Bytes accessed per row activation
system.physmem.bytesPerActivate::8192-8193         2158      6.07%    100.00% # Bytes accessed per row activation
system.physmem.bytesPerActivate::total          35532                       # Bytes accessed per row activation
system.physmem.totQLat                      340173750                       # Total cycles spent in queuing delays
system.physmem.totMemAccLat               10004036250                       # Sum of mem lat for all requests
system.physmem.totBusLat                   2464940000                       # Total cycles spent in databus access
system.physmem.totBankLat                  7198922500                       # Total cycles spent in bank access
system.physmem.avgQLat                         690.02                       # Average queueing delay per request
system.physmem.avgBankLat                    14602.63                       # Average bank access latency per request
system.physmem.avgBusLat                      5000.00                       # Average bus latency per request
system.physmem.avgMemAccLat                  20292.66                       # Average memory access latency
system.physmem.avgRdBW                         170.60                       # Average achieved read bandwidth in MB/s
system.physmem.avgWrBW                          85.10                       # Average achieved write bandwidth in MB/s
system.physmem.avgConsumedRdBW                 170.60                       # Average consumed read bandwidth in MB/s
system.physmem.avgConsumedWrBW                  85.10                       # Average consumed write bandwidth in MB/s
system.physmem.peakBW                        12800.00                       # Theoretical peak bandwidth in MB/s
system.physmem.busUtil                           2.00                       # Data bus utilization in percentage
system.physmem.avgRdQLen                         0.05                       # Average read queue length over time
system.physmem.avgWrQLen                        11.42                       # Average write queue length over time
system.physmem.readRowHits                     471492                       # Number of row buffer hits during reads
system.physmem.writeRowHits                    231857                       # Number of row buffer hits during writes
system.physmem.readRowHitRate                   95.64                       # Row buffer hit rate for reads
system.physmem.writeRowHitRate                  94.29                       # Row buffer hit rate for writes
system.physmem.avgGap                       250290.88                       # Average gap between requests
system.membus.throughput                    255701751                       # Throughput (bytes/s)
system.membus.trans_dist::ReadReq              247015                       # Transaction distribution
system.membus.trans_dist::ReadResp             247013                       # Transaction distribution
system.membus.trans_dist::Writeback            245908                       # Transaction distribution
system.membus.trans_dist::ReadExReq            245988                       # Transaction distribution
system.membus.trans_dist::ReadExResp           245988                       # Transaction distribution
system.membus.pkt_count_system.l2.mem_side      1231912                       # Packet count per connected master and slave (bytes)
system.membus.pkt_count                       1231912                       # Packet count per connected master and slave (bytes)
system.membus.tot_pkt_size_system.l2.mem_side     47290176                       # Cumulative packet size per connected master and slave (bytes)
system.membus.tot_pkt_size                   47290176                       # Cumulative packet size per connected master and slave (bytes)
system.membus.data_through_bus               47290176                       # Total data (bytes)
system.membus.snoop_data_through_bus                0                       # Total snoop data (bytes)
system.membus.reqLayer0.occupancy          1353087500                       # Layer occupancy (ticks)
system.membus.reqLayer0.utilization               0.7                       # Layer utilization (%)
system.membus.respLayer1.occupancy         2338609750                       # Layer occupancy (ticks)
system.membus.respLayer1.utilization              1.3                       # Layer utilization (%)
system.switch_cpus.branchPred.lookups        28915413                       # Number of BP lookups
system.switch_cpus.branchPred.condPredicted      9999771                       # Number of conditional branches predicted
system.switch_cpus.branchPred.condIncorrect        13889                       # Number of conditional branches incorrect
system.switch_cpus.branchPred.BTBLookups     18370696                       # Number of BTB lookups
system.switch_cpus.branchPred.BTBHits        18366406                       # Number of BTB hits
system.switch_cpus.branchPred.BTBCorrect            0                       # Number of correct BTB predictions (this stat may not work properly.
system.switch_cpus.branchPred.BTBHitPct     99.976648                       # BTB Hit Percentage
system.switch_cpus.branchPred.usedRAS         9450007                       # Number of times the RAS was used to get a target.
system.switch_cpus.branchPred.RASInCorrect          108                       # Number of incorrect RAS predictions.
system.switch_cpus.dtb.fetch_hits                   0                       # ITB hits
system.switch_cpus.dtb.fetch_misses                 0                       # ITB misses
system.switch_cpus.dtb.fetch_acv                    0                       # ITB acv
system.switch_cpus.dtb.fetch_accesses               0                       # ITB accesses
system.switch_cpus.dtb.read_hits            242278275                       # DTB read hits
system.switch_cpus.dtb.read_misses               4521                       # DTB read misses
system.switch_cpus.dtb.read_acv                     1                       # DTB read access violations
system.switch_cpus.dtb.read_accesses        242282796                       # DTB read accesses
system.switch_cpus.dtb.write_hits            81090171                       # DTB write hits
system.switch_cpus.dtb.write_misses              2252                       # DTB write misses
system.switch_cpus.dtb.write_acv                    0                       # DTB write access violations
system.switch_cpus.dtb.write_accesses        81092423                       # DTB write accesses
system.switch_cpus.dtb.data_hits            323368446                       # DTB hits
system.switch_cpus.dtb.data_misses               6773                       # DTB misses
system.switch_cpus.dtb.data_acv                     1                       # DTB access violations
system.switch_cpus.dtb.data_accesses        323375219                       # DTB accesses
system.switch_cpus.itb.fetch_hits            77407336                       # ITB hits
system.switch_cpus.itb.fetch_misses               102                       # ITB misses
system.switch_cpus.itb.fetch_acv                    0                       # ITB acv
system.switch_cpus.itb.fetch_accesses        77407438                       # ITB accesses
system.switch_cpus.itb.read_hits                    0                       # DTB read hits
system.switch_cpus.itb.read_misses                  0                       # DTB read misses
system.switch_cpus.itb.read_acv                     0                       # DTB read access violations
system.switch_cpus.itb.read_accesses                0                       # DTB read accesses
system.switch_cpus.itb.write_hits                   0                       # DTB write hits
system.switch_cpus.itb.write_misses                 0                       # DTB write misses
system.switch_cpus.itb.write_acv                    0                       # DTB write access violations
system.switch_cpus.itb.write_accesses               0                       # DTB write accesses
system.switch_cpus.itb.data_hits                    0                       # DTB hits
system.switch_cpus.itb.data_misses                  0                       # DTB misses
system.switch_cpus.itb.data_acv                     0                       # DTB access violations
system.switch_cpus.itb.data_accesses                0                       # DTB accesses
system.cpu.workload.num_syscalls                  503                       # Number of system calls
system.switch_cpus.numCycles                369885430                       # number of cpu cycles simulated
system.switch_cpus.numWorkItemsStarted              0                       # number of work items this cpu started
system.switch_cpus.numWorkItemsCompleted            0                       # number of work items this cpu completed
system.switch_cpus.fetch.icacheStallCycles     77448921                       # Number of cycles fetch is stalled on an Icache miss
system.switch_cpus.fetch.Insts              878428935                       # Number of instructions fetch has processed
system.switch_cpus.fetch.Branches            28915413                       # Number of branches that fetch encountered
system.switch_cpus.fetch.predictedBranches     27816413                       # Number of branches that fetch has predicted taken
system.switch_cpus.fetch.Cycles             128291436                       # Number of cycles fetch has run and was not squashing or blocked
system.switch_cpus.fetch.SquashCycles          158883                       # Number of cycles fetch has spent squashing
system.switch_cpus.fetch.BlockedCycles      132050136                       # Number of cycles fetch has spent blocked
system.switch_cpus.fetch.MiscStallCycles           63                       # Number of cycles fetch has spent waiting on interrupts, or bad addresses, or out of MSHRs
system.switch_cpus.fetch.PendingTrapStallCycles         1549                       # Number of stall cycles due to pending traps
system.switch_cpus.fetch.IcacheWaitRetryStallCycles           49                       # Number of stall cycles due to full MSHR
system.switch_cpus.fetch.CacheLines          77407336                       # Number of cache lines fetched
system.switch_cpus.fetch.IcacheSquashes          7285                       # Number of outstanding Icache misses that were squashed
system.switch_cpus.fetch.rateDist::samples    337920730                       # Number of instructions fetched each cycle (Total)
system.switch_cpus.fetch.rateDist::mean      2.599512                       # Number of instructions fetched each cycle (Total)
system.switch_cpus.fetch.rateDist::stdev     3.577771                       # Number of instructions fetched each cycle (Total)
system.switch_cpus.fetch.rateDist::underflows            0      0.00%      0.00% # Number of instructions fetched each cycle (Total)
system.switch_cpus.fetch.rateDist::0        209629294     62.04%     62.04% # Number of instructions fetched each cycle (Total)
system.switch_cpus.fetch.rateDist::1          4471779      1.32%     63.36% # Number of instructions fetched each cycle (Total)
system.switch_cpus.fetch.rateDist::2          8510462      2.52%     65.88% # Number of instructions fetched each cycle (Total)
system.switch_cpus.fetch.rateDist::3          4218477      1.25%     67.13% # Number of instructions fetched each cycle (Total)
system.switch_cpus.fetch.rateDist::4          5090678      1.51%     68.63% # Number of instructions fetched each cycle (Total)
system.switch_cpus.fetch.rateDist::5          2643323      0.78%     69.41% # Number of instructions fetched each cycle (Total)
system.switch_cpus.fetch.rateDist::6          6231419      1.84%     71.26% # Number of instructions fetched each cycle (Total)
system.switch_cpus.fetch.rateDist::7          3689424      1.09%     72.35% # Number of instructions fetched each cycle (Total)
system.switch_cpus.fetch.rateDist::8         93435874     27.65%    100.00% # Number of instructions fetched each cycle (Total)
system.switch_cpus.fetch.rateDist::overflows            0      0.00%    100.00% # Number of instructions fetched each cycle (Total)
system.switch_cpus.fetch.rateDist::min_value            0                       # Number of instructions fetched each cycle (Total)
system.switch_cpus.fetch.rateDist::max_value            8                       # Number of instructions fetched each cycle (Total)
system.switch_cpus.fetch.rateDist::total    337920730                       # Number of instructions fetched each cycle (Total)
system.switch_cpus.fetch.branchRate          0.078174                       # Number of branch fetches per cycle
system.switch_cpus.fetch.rate                2.374868                       # Number of inst fetches per cycle
system.switch_cpus.decode.IdleCycles        105278873                       # Number of cycles decode is idle
system.switch_cpus.decode.BlockedCycles     104235200                       # Number of cycles decode is blocked
system.switch_cpus.decode.RunCycles         105579098                       # Number of cycles decode is running
system.switch_cpus.decode.UnblockCycles      22699452                       # Number of cycles decode is unblocking
system.switch_cpus.decode.SquashCycles         128106                       # Number of cycles decode is squashing
system.switch_cpus.decode.BranchResolved      9461769                       # Number of times decode resolved a branch
system.switch_cpus.decode.BranchMispred           483                       # Number of times decode detected a branch misprediction
system.switch_cpus.decode.DecodedInsts      878335481                       # Number of instructions handled by decode
system.switch_cpus.decode.SquashedInsts          1539                       # Number of squashed instructions handled by decode
system.switch_cpus.rename.SquashCycles         128106                       # Number of cycles rename is squashing
system.switch_cpus.rename.IdleCycles        112537669                       # Number of cycles rename is idle
system.switch_cpus.rename.BlockCycles        45627592                       # Number of cycles rename is blocking
system.switch_cpus.rename.serializeStallCycles       372063                       # count of cycles rename stalled for serializing inst
system.switch_cpus.rename.RunCycles         121072328                       # Number of cycles rename is running
system.switch_cpus.rename.UnblockCycles      58182971                       # Number of cycles rename is unblocking
system.switch_cpus.rename.RenamedInsts      878200761                       # Number of instructions processed by rename
system.switch_cpus.rename.ROBFullEvents            17                       # Number of times rename has blocked due to ROB full
system.switch_cpus.rename.IQFullEvents          25282                       # Number of times rename has blocked due to IQ full
system.switch_cpus.rename.LSQFullEvents      53500146                       # Number of times rename has blocked due to LSQ full
system.switch_cpus.rename.RenamedOperands    749241204                       # Number of destination operands rename has renamed
system.switch_cpus.rename.RenameLookups    1228553263                       # Number of register rename lookups that rename has made
system.switch_cpus.rename.int_rename_lookups    855113267                       # Number of integer rename lookups
system.switch_cpus.rename.fp_rename_lookups    373439996                       # Number of floating rename lookups
system.switch_cpus.rename.CommittedMaps     748287888                       # Number of HB maps that are committed
system.switch_cpus.rename.UndoneMaps           953316                       # Number of HB maps that are undone due to squashing
system.switch_cpus.rename.serializingInsts         5829                       # count of serializing insts renamed
system.switch_cpus.rename.tempSerializingInsts         3743                       # count of temporary serializing insts renamed
system.switch_cpus.rename.skidInsts         175068210                       # count of insts added to the skid buffer
system.switch_cpus.memDep0.insertedLoads    242357905                       # Number of loads inserted to the mem dependence unit.
system.switch_cpus.memDep0.insertedStores     81140903                       # Number of stores inserted to the mem dependence unit.
system.switch_cpus.memDep0.conflictingLoads     31722882                       # Number of conflicting loads.
system.switch_cpus.memDep0.conflictingStores      2418068                       # Number of conflicting stores.
system.switch_cpus.iq.iqInstsAdded          849712094                       # Number of instructions added to the IQ (excludes non-spec)
system.switch_cpus.iq.iqNonSpecInstsAdded         6904                       # Number of non-speculative instructions added to the IQ
system.switch_cpus.iq.iqInstsIssued         849306497                       # Number of instructions issued
system.switch_cpus.iq.iqSquashedInstsIssued        11661                       # Number of squashed instructions issued
system.switch_cpus.iq.iqSquashedInstsExamined       951847                       # Number of squashed instructions iterated over during squash; mainly for profiling
system.switch_cpus.iq.iqSquashedOperandsExamined       771644                       # Number of squashed operands that are examined and possibly removed from graph
system.switch_cpus.iq.iqSquashedNonSpecRemoved          142                       # Number of squashed non-spec instructions that were removed
system.switch_cpus.iq.issued_per_cycle::samples    337920730                       # Number of insts issued each cycle
system.switch_cpus.iq.issued_per_cycle::mean     2.513331                       # Number of insts issued each cycle
system.switch_cpus.iq.issued_per_cycle::stdev     1.589820                       # Number of insts issued each cycle
system.switch_cpus.iq.issued_per_cycle::underflows            0      0.00%      0.00% # Number of insts issued each cycle
system.switch_cpus.iq.issued_per_cycle::0     35373623     10.47%     10.47% # Number of insts issued each cycle
system.switch_cpus.iq.issued_per_cycle::1     63196887     18.70%     29.17% # Number of insts issued each cycle
system.switch_cpus.iq.issued_per_cycle::2     77633654     22.97%     52.14% # Number of insts issued each cycle
system.switch_cpus.iq.issued_per_cycle::3     70414144     20.84%     72.98% # Number of insts issued each cycle
system.switch_cpus.iq.issued_per_cycle::4     50025131     14.80%     87.78% # Number of insts issued each cycle
system.switch_cpus.iq.issued_per_cycle::5     30179969      8.93%     96.72% # Number of insts issued each cycle
system.switch_cpus.iq.issued_per_cycle::6      9394591      2.78%     99.50% # Number of insts issued each cycle
system.switch_cpus.iq.issued_per_cycle::7      1389893      0.41%     99.91% # Number of insts issued each cycle
system.switch_cpus.iq.issued_per_cycle::8       312838      0.09%    100.00% # Number of insts issued each cycle
system.switch_cpus.iq.issued_per_cycle::overflows            0      0.00%    100.00% # Number of insts issued each cycle
system.switch_cpus.iq.issued_per_cycle::min_value            0                       # Number of insts issued each cycle
system.switch_cpus.iq.issued_per_cycle::max_value            8                       # Number of insts issued each cycle
system.switch_cpus.iq.issued_per_cycle::total    337920730                       # Number of insts issued each cycle
system.switch_cpus.iq.fu_full::No_OpClass            0      0.00%      0.00% # attempts to use FU when none available
system.switch_cpus.iq.fu_full::IntAlu           44363      0.41%      0.41% # attempts to use FU when none available
system.switch_cpus.iq.fu_full::IntMult              0      0.00%      0.41% # attempts to use FU when none available
system.switch_cpus.iq.fu_full::IntDiv               0      0.00%      0.41% # attempts to use FU when none available
system.switch_cpus.iq.fu_full::FloatAdd             0      0.00%      0.41% # attempts to use FU when none available
system.switch_cpus.iq.fu_full::FloatCmp             0      0.00%      0.41% # attempts to use FU when none available
system.switch_cpus.iq.fu_full::FloatCvt       1460331     13.62%     14.04% # attempts to use FU when none available
system.switch_cpus.iq.fu_full::FloatMult       745196      6.95%     20.99% # attempts to use FU when none available
system.switch_cpus.iq.fu_full::FloatDiv             0      0.00%     20.99% # attempts to use FU when none available
system.switch_cpus.iq.fu_full::FloatSqrt            0      0.00%     20.99% # attempts to use FU when none available
system.switch_cpus.iq.fu_full::SimdAdd              0      0.00%     20.99% # attempts to use FU when none available
system.switch_cpus.iq.fu_full::SimdAddAcc            0      0.00%     20.99% # attempts to use FU when none available
system.switch_cpus.iq.fu_full::SimdAlu              0      0.00%     20.99% # attempts to use FU when none available
system.switch_cpus.iq.fu_full::SimdCmp              0      0.00%     20.99% # attempts to use FU when none available
system.switch_cpus.iq.fu_full::SimdCvt              0      0.00%     20.99% # attempts to use FU when none available
system.switch_cpus.iq.fu_full::SimdMisc             0      0.00%     20.99% # attempts to use FU when none available
system.switch_cpus.iq.fu_full::SimdMult             0      0.00%     20.99% # attempts to use FU when none available
system.switch_cpus.iq.fu_full::SimdMultAcc            0      0.00%     20.99% # attempts to use FU when none available
system.switch_cpus.iq.fu_full::SimdShift            0      0.00%     20.99% # attempts to use FU when none available
system.switch_cpus.iq.fu_full::SimdShiftAcc            0      0.00%     20.99% # attempts to use FU when none available
system.switch_cpus.iq.fu_full::SimdSqrt             0      0.00%     20.99% # attempts to use FU when none available
system.switch_cpus.iq.fu_full::SimdFloatAdd            0      0.00%     20.99% # attempts to use FU when none available
system.switch_cpus.iq.fu_full::SimdFloatAlu            0      0.00%     20.99% # attempts to use FU when none available
system.switch_cpus.iq.fu_full::SimdFloatCmp            0      0.00%     20.99% # attempts to use FU when none available
system.switch_cpus.iq.fu_full::SimdFloatCvt            0      0.00%     20.99% # attempts to use FU when none available
system.switch_cpus.iq.fu_full::SimdFloatDiv            0      0.00%     20.99% # attempts to use FU when none available
system.switch_cpus.iq.fu_full::SimdFloatMisc            0      0.00%     20.99% # attempts to use FU when none available
system.switch_cpus.iq.fu_full::SimdFloatMult            0      0.00%     20.99% # attempts to use FU when none available
system.switch_cpus.iq.fu_full::SimdFloatMultAcc            0      0.00%     20.99% # attempts to use FU when none available
system.switch_cpus.iq.fu_full::SimdFloatSqrt            0      0.00%     20.99% # attempts to use FU when none available
system.switch_cpus.iq.fu_full::MemRead        4024410     37.54%     58.53% # attempts to use FU when none available
system.switch_cpus.iq.fu_full::MemWrite       4445568     41.47%    100.00% # attempts to use FU when none available
system.switch_cpus.iq.fu_full::IprAccess            0      0.00%    100.00% # attempts to use FU when none available
system.switch_cpus.iq.fu_full::InstPrefetch            0      0.00%    100.00% # attempts to use FU when none available
system.switch_cpus.iq.FU_type_0::No_OpClass          393      0.00%      0.00% # Type of FU issued
system.switch_cpus.iq.FU_type_0::IntAlu     299334393     35.24%     35.24% # Type of FU issued
system.switch_cpus.iq.FU_type_0::IntMult     18887873      2.22%     37.47% # Type of FU issued
system.switch_cpus.iq.FU_type_0::IntDiv             0      0.00%     37.47% # Type of FU issued
system.switch_cpus.iq.FU_type_0::FloatAdd    127957200     15.07%     52.53% # Type of FU issued
system.switch_cpus.iq.FU_type_0::FloatCmp            3      0.00%     52.53% # Type of FU issued
system.switch_cpus.iq.FU_type_0::FloatCvt     48252110      5.68%     58.22% # Type of FU issued
system.switch_cpus.iq.FU_type_0::FloatMult     28320071      3.33%     61.55% # Type of FU issued
system.switch_cpus.iq.FU_type_0::FloatDiv      3147058      0.37%     61.92% # Type of FU issued
system.switch_cpus.iq.FU_type_0::FloatSqrt            0      0.00%     61.92% # Type of FU issued
system.switch_cpus.iq.FU_type_0::SimdAdd            0      0.00%     61.92% # Type of FU issued
system.switch_cpus.iq.FU_type_0::SimdAddAcc            0      0.00%     61.92% # Type of FU issued
system.switch_cpus.iq.FU_type_0::SimdAlu            0      0.00%     61.92% # Type of FU issued
system.switch_cpus.iq.FU_type_0::SimdCmp            0      0.00%     61.92% # Type of FU issued
system.switch_cpus.iq.FU_type_0::SimdCvt            0      0.00%     61.92% # Type of FU issued
system.switch_cpus.iq.FU_type_0::SimdMisc            0      0.00%     61.92% # Type of FU issued
system.switch_cpus.iq.FU_type_0::SimdMult            0      0.00%     61.92% # Type of FU issued
system.switch_cpus.iq.FU_type_0::SimdMultAcc            0      0.00%     61.92% # Type of FU issued
system.switch_cpus.iq.FU_type_0::SimdShift            0      0.00%     61.92% # Type of FU issued
system.switch_cpus.iq.FU_type_0::SimdShiftAcc            0      0.00%     61.92% # Type of FU issued
system.switch_cpus.iq.FU_type_0::SimdSqrt            0      0.00%     61.92% # Type of FU issued
system.switch_cpus.iq.FU_type_0::SimdFloatAdd            0      0.00%     61.92% # Type of FU issued
system.switch_cpus.iq.FU_type_0::SimdFloatAlu            0      0.00%     61.92% # Type of FU issued
system.switch_cpus.iq.FU_type_0::SimdFloatCmp            0      0.00%     61.92% # Type of FU issued
system.switch_cpus.iq.FU_type_0::SimdFloatCvt            0      0.00%     61.92% # Type of FU issued
system.switch_cpus.iq.FU_type_0::SimdFloatDiv            0      0.00%     61.92% # Type of FU issued
system.switch_cpus.iq.FU_type_0::SimdFloatMisc            0      0.00%     61.92% # Type of FU issued
system.switch_cpus.iq.FU_type_0::SimdFloatMult            0      0.00%     61.92% # Type of FU issued
system.switch_cpus.iq.FU_type_0::SimdFloatMultAcc            0      0.00%     61.92% # Type of FU issued
system.switch_cpus.iq.FU_type_0::SimdFloatSqrt            0      0.00%     61.92% # Type of FU issued
system.switch_cpus.iq.FU_type_0::MemRead    242310872     28.53%     90.45% # Type of FU issued
system.switch_cpus.iq.FU_type_0::MemWrite     81096524      9.55%    100.00% # Type of FU issued
system.switch_cpus.iq.FU_type_0::IprAccess            0      0.00%    100.00% # Type of FU issued
system.switch_cpus.iq.FU_type_0::InstPrefetch            0      0.00%    100.00% # Type of FU issued
system.switch_cpus.iq.FU_type_0::total      849306497                       # Type of FU issued
system.switch_cpus.iq.rate                   2.296134                       # Inst issue rate
system.switch_cpus.iq.fu_busy_cnt            10719868                       # FU busy when requested
system.switch_cpus.iq.fu_busy_rate           0.012622                       # FU busy rate (busy events/executed inst)
system.switch_cpus.iq.int_inst_queue_reads   1520593620                       # Number of integer instruction queue reads
system.switch_cpus.iq.int_inst_queue_writes    588350140                       # Number of integer instruction queue writes
system.switch_cpus.iq.int_inst_queue_wakeup_accesses    586990569                       # Number of integer instruction queue wakeup accesses
system.switch_cpus.iq.fp_inst_queue_reads    526671633                       # Number of floating instruction queue reads
system.switch_cpus.iq.fp_inst_queue_writes    262332806                       # Number of floating instruction queue writes
system.switch_cpus.iq.fp_inst_queue_wakeup_accesses    262222899                       # Number of floating instruction queue wakeup accesses
system.switch_cpus.iq.int_alu_accesses      595586276                       # Number of integer alu accesses
system.switch_cpus.iq.fp_alu_accesses       264439696                       # Number of floating point alu accesses
system.switch_cpus.iew.lsq.thread0.forwLoads     32694557                       # Number of loads that had data forwarded from stores
system.switch_cpus.iew.lsq.thread0.invAddrLoads            0                       # Number of loads ignored due to an invalid address
system.switch_cpus.iew.lsq.thread0.squashedLoads       307373                       # Number of loads squashed
system.switch_cpus.iew.lsq.thread0.ignoredResponses          711                       # Number of memory responses ignored because the instruction is squashed
system.switch_cpus.iew.lsq.thread0.memOrderViolation        12223                       # Number of memory ordering violations
system.switch_cpus.iew.lsq.thread0.squashedStores        93988                       # Number of stores squashed
system.switch_cpus.iew.lsq.thread0.invAddrSwpfs            0                       # Number of software prefetches ignored due to an invalid address
system.switch_cpus.iew.lsq.thread0.blockedLoads            0                       # Number of blocked loads due to partial load-store forwarding
system.switch_cpus.iew.lsq.thread0.rescheduledLoads           15                       # Number of loads that were rescheduled
system.switch_cpus.iew.lsq.thread0.cacheBlocked          783                       # Number of times an access to memory failed due to the cache being blocked
system.switch_cpus.iew.iewIdleCycles                0                       # Number of cycles IEW is idle
system.switch_cpus.iew.iewSquashCycles         128106                       # Number of cycles IEW is squashing
system.switch_cpus.iew.iewBlockCycles        13368410                       # Number of cycles IEW is blocking
system.switch_cpus.iew.iewUnblockCycles       1041991                       # Number of cycles IEW is unblocking
system.switch_cpus.iew.iewDispatchedInsts    878056761                       # Number of instructions dispatched to IQ
system.switch_cpus.iew.iewDispSquashedInsts         5694                       # Number of squashed instructions skipped by dispatch
system.switch_cpus.iew.iewDispLoadInsts     242357905                       # Number of dispatched load instructions
system.switch_cpus.iew.iewDispStoreInsts     81140903                       # Number of dispatched store instructions
system.switch_cpus.iew.iewDispNonSpecInsts         3736                       # Number of dispatched non-speculative instructions
system.switch_cpus.iew.iewIQFullEvents          37291                       # Number of times the IQ has become full, causing a stall
system.switch_cpus.iew.iewLSQFullEvents         84334                       # Number of times the LSQ has become full, causing a stall
system.switch_cpus.iew.memOrderViolationEvents        12223                       # Number of memory order violations
system.switch_cpus.iew.predictedTakenIncorrect        10201                       # Number of branches that were predicted taken incorrectly
system.switch_cpus.iew.predictedNotTakenIncorrect         4167                       # Number of branches that were predicted not taken incorrectly
system.switch_cpus.iew.branchMispredicts        14368                       # Number of branch mispredicts detected at execute
system.switch_cpus.iew.iewExecutedInsts     849263191                       # Number of executed instructions
system.switch_cpus.iew.iewExecLoadInsts     242282802                       # Number of load instructions executed
system.switch_cpus.iew.iewExecSquashedInsts        43306                       # Number of squashed instructions skipped in execute
system.switch_cpus.iew.exec_swp                     0                       # number of swp insts executed
system.switch_cpus.iew.exec_nop              28337763                       # number of nop insts executed
system.switch_cpus.iew.exec_refs            323375227                       # number of memory reference insts executed
system.switch_cpus.iew.exec_branches         28892162                       # Number of branches executed
system.switch_cpus.iew.exec_stores           81092425                       # Number of stores executed
system.switch_cpus.iew.exec_rate             2.296017                       # Inst execution rate
system.switch_cpus.iew.wb_sent              849236245                       # cumulative count of insts sent to commit
system.switch_cpus.iew.wb_count             849213468                       # cumulative count of insts written-back
system.switch_cpus.iew.wb_producers         723371669                       # num instructions producing a value
system.switch_cpus.iew.wb_consumers         816049785                       # num instructions consuming a value
system.switch_cpus.iew.wb_penalized                 0                       # number of instrctions required to write to 'other' IQ
system.switch_cpus.iew.wb_rate               2.295882                       # insts written-back per cycle
system.switch_cpus.iew.wb_fanout             0.886431                       # average fanout of values written-back
system.switch_cpus.iew.wb_penalized_rate            0                       # fraction of instructions written-back that wrote to 'other' IQ
system.switch_cpus.commit.commitSquashedInsts       878672                       # The number of squashed insts skipped by commit
system.switch_cpus.commit.commitNonSpecStalls         6762                       # The number of times commit has been forced to stall to communicate backwards
system.switch_cpus.commit.branchMispredicts        13419                       # The number of times a branch was mispredicted
system.switch_cpus.commit.committed_per_cycle::samples    337792624                       # Number of insts commited each cycle
system.switch_cpus.commit.committed_per_cycle::mean     2.596536                       # Number of insts commited each cycle
system.switch_cpus.commit.committed_per_cycle::stdev     3.282061                       # Number of insts commited each cycle
system.switch_cpus.commit.committed_per_cycle::underflows            0      0.00%      0.00% # Number of insts commited each cycle
system.switch_cpus.commit.committed_per_cycle::0    132603420     39.26%     39.26% # Number of insts commited each cycle
system.switch_cpus.commit.committed_per_cycle::1     87590011     25.93%     65.19% # Number of insts commited each cycle
system.switch_cpus.commit.committed_per_cycle::2     11681357      3.46%     68.64% # Number of insts commited each cycle
system.switch_cpus.commit.committed_per_cycle::3      5930335      1.76%     70.40% # Number of insts commited each cycle
system.switch_cpus.commit.committed_per_cycle::4      5688303      1.68%     72.08% # Number of insts commited each cycle
system.switch_cpus.commit.committed_per_cycle::5      3770768      1.12%     73.20% # Number of insts commited each cycle
system.switch_cpus.commit.committed_per_cycle::6      5799029      1.72%     74.92% # Number of insts commited each cycle
system.switch_cpus.commit.committed_per_cycle::7      5889482      1.74%     76.66% # Number of insts commited each cycle
system.switch_cpus.commit.committed_per_cycle::8     78839919     23.34%    100.00% # Number of insts commited each cycle
system.switch_cpus.commit.committed_per_cycle::overflows            0      0.00%    100.00% # Number of insts commited each cycle
system.switch_cpus.commit.committed_per_cycle::min_value            0                       # Number of insts commited each cycle
system.switch_cpus.commit.committed_per_cycle::max_value            8                       # Number of insts commited each cycle
system.switch_cpus.commit.committed_per_cycle::total    337792624                       # Number of insts commited each cycle
system.switch_cpus.commit.committedInsts    877090682                       # Number of instructions committed
system.switch_cpus.commit.committedOps      877090682                       # Number of ops (including micro ops) committed
system.switch_cpus.commit.swp_count                 0                       # Number of s/w prefetches committed
system.switch_cpus.commit.refs              323097447                       # Number of memory references committed
system.switch_cpus.commit.loads             242050532                       # Number of loads committed
system.switch_cpus.commit.membars                3127                       # Number of memory barriers committed
system.switch_cpus.commit.branches           28869599                       # Number of branches committed
system.switch_cpus.commit.fp_insts          262150420                       # Number of committed floating point instructions.
system.switch_cpus.commit.int_insts         689356808                       # Number of committed integer instructions.
system.switch_cpus.commit.function_calls      9447851                       # Number of function calls committed.
system.switch_cpus.commit.bw_lim_events      78839919                       # number cycles where commit BW limit reached
system.switch_cpus.commit.bw_limited                0                       # number of insts not committed due to BW limits
system.switch_cpus.rob.rob_reads           1136867979                       # The number of ROB reads
system.switch_cpus.rob.rob_writes          1756067128                       # The number of ROB writes
system.switch_cpus.timesIdled                  489201                       # Number of times that the entire CPU went into an idle state and unscheduled itself
system.switch_cpus.idleCycles                31964700                       # Total number of cycles that the CPU has spent unscheduled due to idling
system.switch_cpus.committedInsts           848757450                       # Number of Instructions Simulated
system.switch_cpus.committedOps             848757450                       # Number of Ops (including micro ops) Simulated
system.switch_cpus.committedInsts_total     848757450                       # Number of Instructions Simulated
system.switch_cpus.cpi                       0.435796                       # CPI: Cycles Per Instruction
system.switch_cpus.cpi_total                 0.435796                       # CPI: Total CPI of All Threads
system.switch_cpus.ipc                       2.294650                       # IPC: Instructions Per Cycle
system.switch_cpus.ipc_total                 2.294650                       # IPC: Total IPC of All Threads
system.switch_cpus.int_regfile_reads        949654036                       # number of integer regfile reads
system.switch_cpus.int_regfile_writes       502208842                       # number of integer regfile writes
system.switch_cpus.fp_regfile_reads         277934565                       # number of floating regfile reads
system.switch_cpus.fp_regfile_writes        246488481                       # number of floating regfile writes
system.switch_cpus.misc_regfile_reads         8396474                       # number of misc regfile reads
system.switch_cpus.misc_regfile_writes           6255                       # number of misc regfile writes
system.l2.tags.replacements                    485095                       # number of replacements
system.l2.tags.tagsinuse                  8021.287515                       # Cycle average of tags in use
system.l2.tags.total_refs                      234561                       # Total number of references to valid blocks.
system.l2.tags.sampled_refs                    493263                       # Sample count of references to valid blocks.
system.l2.tags.avg_refs                      0.475529                       # Average number of references to valid blocks.
system.l2.tags.warmup_cycle                         0                       # Cycle when the warmup percentage was hit.
system.l2.tags.occ_blocks::writebacks     5547.188587                       # Average occupied blocks per requestor
system.l2.tags.occ_blocks::switch_cpus.inst     7.618642                       # Average occupied blocks per requestor
system.l2.tags.occ_blocks::switch_cpus.data  2465.485731                       # Average occupied blocks per requestor
system.l2.tags.occ_blocks::cpu.inst          0.789741                       # Average occupied blocks per requestor
system.l2.tags.occ_blocks::cpu.data          0.204814                       # Average occupied blocks per requestor
system.l2.tags.occ_percent::writebacks       0.677147                       # Average percentage of cache occupancy
system.l2.tags.occ_percent::switch_cpus.inst     0.000930                       # Average percentage of cache occupancy
system.l2.tags.occ_percent::switch_cpus.data     0.300963                       # Average percentage of cache occupancy
system.l2.tags.occ_percent::cpu.inst         0.000096                       # Average percentage of cache occupancy
system.l2.tags.occ_percent::cpu.data         0.000025                       # Average percentage of cache occupancy
system.l2.tags.occ_percent::total            0.979161                       # Average percentage of cache occupancy
system.l2.ReadReq_hits::switch_cpus.inst           73                       # number of ReadReq hits
system.l2.ReadReq_hits::switch_cpus.data       148321                       # number of ReadReq hits
system.l2.ReadReq_hits::total                  148394                       # number of ReadReq hits
system.l2.Writeback_hits::writebacks           332160                       # number of Writeback hits
system.l2.Writeback_hits::total                332160                       # number of Writeback hits
system.l2.ReadExReq_hits::switch_cpus.data        53878                       # number of ReadExReq hits
system.l2.ReadExReq_hits::total                 53878                       # number of ReadExReq hits
system.l2.demand_hits::switch_cpus.inst            73                       # number of demand (read+write) hits
system.l2.demand_hits::switch_cpus.data        202199                       # number of demand (read+write) hits
system.l2.demand_hits::total                   202272                       # number of demand (read+write) hits
system.l2.overall_hits::switch_cpus.inst           73                       # number of overall hits
system.l2.overall_hits::switch_cpus.data       202199                       # number of overall hits
system.l2.overall_hits::total                  202272                       # number of overall hits
system.l2.ReadReq_misses::switch_cpus.inst          978                       # number of ReadReq misses
system.l2.ReadReq_misses::switch_cpus.data       246037                       # number of ReadReq misses
system.l2.ReadReq_misses::total                247015                       # number of ReadReq misses
system.l2.ReadExReq_misses::switch_cpus.data       245988                       # number of ReadExReq misses
system.l2.ReadExReq_misses::total              245988                       # number of ReadExReq misses
system.l2.demand_misses::switch_cpus.inst          978                       # number of demand (read+write) misses
system.l2.demand_misses::switch_cpus.data       492025                       # number of demand (read+write) misses
system.l2.demand_misses::total                 493003                       # number of demand (read+write) misses
system.l2.overall_misses::switch_cpus.inst          978                       # number of overall misses
system.l2.overall_misses::switch_cpus.data       492025                       # number of overall misses
system.l2.overall_misses::total                493003                       # number of overall misses
system.l2.ReadReq_miss_latency::switch_cpus.inst     66392250                       # number of ReadReq miss cycles
system.l2.ReadReq_miss_latency::switch_cpus.data  15040225000                       # number of ReadReq miss cycles
system.l2.ReadReq_miss_latency::total     15106617250                       # number of ReadReq miss cycles
system.l2.ReadExReq_miss_latency::switch_cpus.data  15350500000                       # number of ReadExReq miss cycles
system.l2.ReadExReq_miss_latency::total   15350500000                       # number of ReadExReq miss cycles
system.l2.demand_miss_latency::switch_cpus.inst     66392250                       # number of demand (read+write) miss cycles
system.l2.demand_miss_latency::switch_cpus.data  30390725000                       # number of demand (read+write) miss cycles
system.l2.demand_miss_latency::total      30457117250                       # number of demand (read+write) miss cycles
system.l2.overall_miss_latency::switch_cpus.inst     66392250                       # number of overall miss cycles
system.l2.overall_miss_latency::switch_cpus.data  30390725000                       # number of overall miss cycles
system.l2.overall_miss_latency::total     30457117250                       # number of overall miss cycles
system.l2.ReadReq_accesses::switch_cpus.inst         1051                       # number of ReadReq accesses(hits+misses)
system.l2.ReadReq_accesses::switch_cpus.data       394358                       # number of ReadReq accesses(hits+misses)
system.l2.ReadReq_accesses::total              395409                       # number of ReadReq accesses(hits+misses)
system.l2.Writeback_accesses::writebacks       332160                       # number of Writeback accesses(hits+misses)
system.l2.Writeback_accesses::total            332160                       # number of Writeback accesses(hits+misses)
system.l2.ReadExReq_accesses::switch_cpus.data       299866                       # number of ReadExReq accesses(hits+misses)
system.l2.ReadExReq_accesses::total            299866                       # number of ReadExReq accesses(hits+misses)
system.l2.demand_accesses::switch_cpus.inst         1051                       # number of demand (read+write) accesses
[...]
system.cpu.icache.overall_mshr_hits::total          408                       # number of overall MSHR hits
system.cpu.icache.ReadReq_mshr_misses::switch_cpus.inst         1051                       # number of ReadReq MSHR misses
system.cpu.icache.ReadReq_mshr_misses::total         1051                       # number of ReadReq MSHR misses
system.cpu.icache.demand_mshr_misses::switch_cpus.inst         1051                       # number of demand (read+write) MSHR misses
system.cpu.icache.demand_mshr_misses::total         1051                       # number of demand (read+write) MSHR misses
system.cpu.icache.overall_mshr_misses::switch_cpus.inst         1051                       # number of overall MSHR misses
system.cpu.icache.overall_mshr_misses::total         1051                       # number of overall MSHR misses
system.cpu.icache.ReadReq_mshr_miss_latency::switch_cpus.inst     68183250                       # number of ReadReq MSHR miss cycles
system.cpu.icache.ReadReq_mshr_miss_latency::total     68183250                       # number of ReadReq MSHR miss cycles
system.cpu.icache.demand_mshr_miss_latency::switch_cpus.inst     68183250                       # number of demand (read+write) MSHR miss cycles
system.cpu.icache.demand_mshr_miss_latency::total     68183250                       # number of demand (read+write) MSHR miss cycles
system.cpu.icache.overall_mshr_miss_latency::switch_cpus.inst     68183250                       # number of overall MSHR miss cycles
system.cpu.icache.overall_mshr_miss_latency::total     68183250                       # number of overall MSHR miss cycles
system.cpu.icache.ReadReq_mshr_miss_rate::switch_cpus.inst     0.000014                       # mshr miss rate for ReadReq accesses
system.cpu.icache.ReadReq_mshr_miss_rate::total     0.000014                       # mshr miss rate for ReadReq accesses
system.cpu.icache.demand_mshr_miss_rate::switch_cpus.inst     0.000014                       # mshr miss rate for demand accesses
system.cpu.icache.demand_mshr_miss_rate::total     0.000014                       # mshr miss rate for demand accesses
system.cpu.icache.overall_mshr_miss_rate::switch_cpus.inst     0.000014                       # mshr miss rate for overall accesses
system.cpu.icache.overall_mshr_miss_rate::total     0.000014                       # mshr miss rate for overall accesses
system.cpu.icache.ReadReq_avg_mshr_miss_latency::switch_cpus.inst 64874.643197                       # average ReadReq mshr miss latency
system.cpu.icache.ReadReq_avg_mshr_miss_latency::total 64874.643197                       # average ReadReq mshr miss latency
system.cpu.icache.demand_avg_mshr_miss_latency::switch_cpus.inst 64874.643197                       # average overall mshr miss latency
system.cpu.icache.demand_avg_mshr_miss_latency::total 64874.643197                       # average overall mshr miss latency
system.cpu.icache.overall_avg_mshr_miss_latency::switch_cpus.inst 64874.643197                       # average overall mshr miss latency
system.cpu.icache.overall_avg_mshr_miss_latency::total 64874.643197                       # average overall mshr miss latency
system.cpu.icache.no_allocate_misses                0                       # Number of misses that were no-allocate
system.cpu.dcache.tags.replacements            693870                       # number of replacements
system.cpu.dcache.tags.tagsinuse           431.882759                       # Cycle average of tags in use
system.cpu.dcache.tags.total_refs           288242021                       # Total number of references to valid blocks.
system.cpu.dcache.tags.sampled_refs            694302                       # Sample count of references to valid blocks.
system.cpu.dcache.tags.avg_refs            415.153667                       # Average number of references to valid blocks.
system.cpu.dcache.tags.warmup_cycle                 0                       # Cycle when the warmup percentage was hit.
system.cpu.dcache.tags.occ_blocks::switch_cpus.data   431.866541                       # Average occupied blocks per requestor
system.cpu.dcache.tags.occ_blocks::cpu.data     0.016217                       # Average occupied blocks per requestor
system.cpu.dcache.tags.occ_percent::switch_cpus.data     0.843489                       # Average percentage of cache occupancy
system.cpu.dcache.tags.occ_percent::cpu.data     0.000032                       # Average percentage of cache occupancy
system.cpu.dcache.tags.occ_percent::total     0.843521                       # Average percentage of cache occupancy
system.cpu.dcache.ReadReq_hits::switch_cpus.data    208245786                       # number of ReadReq hits
system.cpu.dcache.ReadReq_hits::total       208245786                       # number of ReadReq hits
system.cpu.dcache.WriteReq_hits::switch_cpus.data     79991021                       # number of WriteReq hits
system.cpu.dcache.WriteReq_hits::total       79991021                       # number of WriteReq hits
system.cpu.dcache.LoadLockedReq_hits::switch_cpus.data         1586                       # number of LoadLockedReq hits
system.cpu.dcache.LoadLockedReq_hits::total         1586                       # number of LoadLockedReq hits
system.cpu.dcache.StoreCondReq_hits::switch_cpus.data         3127                       # number of StoreCondReq hits
system.cpu.dcache.StoreCondReq_hits::total         3127                       # number of StoreCondReq hits
system.cpu.dcache.demand_hits::switch_cpus.data    288236807                       # number of demand (read+write) hits
system.cpu.dcache.demand_hits::total        288236807                       # number of demand (read+write) hits
system.cpu.dcache.overall_hits::switch_cpus.data    288236807                       # number of overall hits
system.cpu.dcache.overall_hits::total       288236807                       # number of overall hits
system.cpu.dcache.ReadReq_misses::switch_cpus.data      1334028                       # number of ReadReq misses
system.cpu.dcache.ReadReq_misses::total       1334028                       # number of ReadReq misses
system.cpu.dcache.WriteReq_misses::switch_cpus.data      1052767                       # number of WriteReq misses
system.cpu.dcache.WriteReq_misses::total      1052767                       # number of WriteReq misses
system.cpu.dcache.LoadLockedReq_misses::switch_cpus.data         1543                       # number of LoadLockedReq misses
system.cpu.dcache.LoadLockedReq_misses::total         1543                       # number of LoadLockedReq misses
system.cpu.dcache.demand_misses::switch_cpus.data      2386795                       # number of demand (read+write) misses
system.cpu.dcache.demand_misses::total        2386795                       # number of demand (read+write) misses
system.cpu.dcache.overall_misses::switch_cpus.data      2386795                       # number of overall misses
system.cpu.dcache.overall_misses::total       2386795                       # number of overall misses
system.cpu.dcache.ReadReq_miss_latency::switch_cpus.data  57437109500                       # number of ReadReq miss cycles
system.cpu.dcache.ReadReq_miss_latency::total  57437109500                       # number of ReadReq miss cycles
system.cpu.dcache.WriteReq_miss_latency::switch_cpus.data  47137636228                       # number of WriteReq miss cycles
system.cpu.dcache.WriteReq_miss_latency::total  47137636228                       # number of WriteReq miss cycles
system.cpu.dcache.LoadLockedReq_miss_latency::switch_cpus.data     21388500                       # number of LoadLockedReq miss cycles
system.cpu.dcache.LoadLockedReq_miss_latency::total     21388500                       # number of LoadLockedReq miss cycles
system.cpu.dcache.demand_miss_latency::switch_cpus.data 104574745728                       # number of demand (read+write) miss cycles
system.cpu.dcache.demand_miss_latency::total 104574745728                       # number of demand (read+write) miss cycles
system.cpu.dcache.overall_miss_latency::switch_cpus.data 104574745728                       # number of overall miss cycles
system.cpu.dcache.overall_miss_latency::total 104574745728                       # number of overall miss cycles
system.cpu.dcache.ReadReq_accesses::switch_cpus.data    209579814                       # number of ReadReq accesses(hits+misses)
system.cpu.dcache.ReadReq_accesses::total    209579814                       # number of ReadReq accesses(hits+misses)
system.cpu.dcache.WriteReq_accesses::switch_cpus.data     81043788                       # number of WriteReq accesses(hits+misses)
system.cpu.dcache.WriteReq_accesses::total     81043788                       # number of WriteReq accesses(hits+misses)
system.cpu.dcache.LoadLockedReq_accesses::switch_cpus.data         3129                       # number of LoadLockedReq accesses(hits+misses)
system.cpu.dcache.LoadLockedReq_accesses::total         3129                       # number of LoadLockedReq accesses(hits+misses)
system.cpu.dcache.StoreCondReq_accesses::switch_cpus.data         3127                       # number of StoreCondReq accesses(hits+misses)
system.cpu.dcache.StoreCondReq_accesses::total         3127                       # number of StoreCondReq accesses(hits+misses)
system.cpu.dcache.demand_accesses::switch_cpus.data    290623602                       # number of demand (read+write) accesses
system.cpu.dcache.demand_accesses::total    290623602                       # number of demand (read+write) accesses
system.cpu.dcache.overall_accesses::switch_cpus.data    290623602                       # number of overall (read+write) accesses
system.cpu.dcache.overall_accesses::total    290623602                       # number of overall (read+write) accesses
system.cpu.dcache.ReadReq_miss_rate::switch_cpus.data     0.006365                       # miss rate for ReadReq accesses
system.cpu.dcache.ReadReq_miss_rate::total     0.006365                       # miss rate for ReadReq accesses
system.cpu.dcache.WriteReq_miss_rate::switch_cpus.data     0.012990                       # miss rate for WriteReq accesses
system.cpu.dcache.WriteReq_miss_rate::total     0.012990                       # miss rate for WriteReq accesses
system.cpu.dcache.LoadLockedReq_miss_rate::switch_cpus.data     0.493129                       # miss rate for LoadLockedReq accesses
system.cpu.dcache.LoadLockedReq_miss_rate::total     0.493129                       # miss rate for LoadLockedReq accesses
system.cpu.dcache.demand_miss_rate::switch_cpus.data     0.008213                       # miss rate for demand accesses
system.cpu.dcache.demand_miss_rate::total     0.008213                       # miss rate for demand accesses
system.cpu.dcache.overall_miss_rate::switch_cpus.data     0.008213                       # miss rate for overall accesses
system.cpu.dcache.overall_miss_rate::total     0.008213                       # miss rate for overall accesses
system.cpu.dcache.ReadReq_avg_miss_latency::switch_cpus.data 43055.400261                       # average ReadReq miss latency
system.cpu.dcache.ReadReq_avg_miss_latency::total 43055.400261                       # average ReadReq miss latency
system.cpu.dcache.WriteReq_avg_miss_latency::switch_cpus.data 44774.994114                       # average WriteReq miss latency
system.cpu.dcache.WriteReq_avg_miss_latency::total 44774.994114                       # average WriteReq miss latency
system.cpu.dcache.LoadLockedReq_avg_miss_latency::switch_cpus.data 13861.633182                       # average LoadLockedReq miss latency
system.cpu.dcache.LoadLockedReq_avg_miss_latency::total 13861.633182                       # average LoadLockedReq miss latency
system.cpu.dcache.demand_avg_miss_latency::switch_cpus.data 43813.878330                       # average overall miss latency
system.cpu.dcache.demand_avg_miss_latency::total 43813.878330                       # average overall miss latency
system.cpu.dcache.overall_avg_miss_latency::switch_cpus.data 43813.878330                       # average overall miss latency
system.cpu.dcache.overall_avg_miss_latency::total 43813.878330                       # average overall miss latency
system.cpu.dcache.blocked_cycles::no_mshrs         6030                       # number of cycles access was blocked
system.cpu.dcache.blocked_cycles::no_targets            0                       # number of cycles access was blocked
system.cpu.dcache.blocked::no_mshrs               194                       # number of cycles access was blocked
system.cpu.dcache.blocked::no_targets               0                       # number of cycles access was blocked
system.cpu.dcache.avg_blocked_cycles::no_mshrs    31.082474                       # average number of cycles each access was blocked
system.cpu.dcache.avg_blocked_cycles::no_targets          nan                       # average number of cycles each access was blocked
system.cpu.dcache.fast_writes                       0                       # number of fast writes performed
system.cpu.dcache.cache_copies                      0                       # number of cache copies performed
system.cpu.dcache.writebacks::writebacks       332160                       # number of writebacks
system.cpu.dcache.writebacks::total            332160                       # number of writebacks
system.cpu.dcache.ReadReq_mshr_hits::switch_cpus.data       939672                       # number of ReadReq MSHR hits
system.cpu.dcache.ReadReq_mshr_hits::total       939672                       # number of ReadReq MSHR hits
system.cpu.dcache.WriteReq_mshr_hits::switch_cpus.data       752901                       # number of WriteReq MSHR hits
system.cpu.dcache.WriteReq_mshr_hits::total       752901                       # number of WriteReq MSHR hits
system.cpu.dcache.LoadLockedReq_mshr_hits::switch_cpus.data         1541                       # number of LoadLockedReq MSHR hits
system.cpu.dcache.LoadLockedReq_mshr_hits::total         1541                       # number of LoadLockedReq MSHR hits
system.cpu.dcache.demand_mshr_hits::switch_cpus.data      1692573                       # number of demand (read+write) MSHR hits
system.cpu.dcache.demand_mshr_hits::total      1692573                       # number of demand (read+write) MSHR hits
system.cpu.dcache.overall_mshr_hits::switch_cpus.data      1692573                       # number of overall MSHR hits
system.cpu.dcache.overall_mshr_hits::total      1692573                       # number of overall MSHR hits
system.cpu.dcache.ReadReq_mshr_misses::switch_cpus.data       394356                       # number of ReadReq MSHR misses
system.cpu.dcache.ReadReq_mshr_misses::total       394356                       # number of ReadReq MSHR misses
system.cpu.dcache.WriteReq_mshr_misses::switch_cpus.data       299866                       # number of WriteReq MSHR misses
system.cpu.dcache.WriteReq_mshr_misses::total       299866                       # number of WriteReq MSHR misses
system.cpu.dcache.LoadLockedReq_mshr_misses::switch_cpus.data            2                       # number of LoadLockedReq MSHR misses
system.cpu.dcache.LoadLockedReq_mshr_misses::total            2                       # number of LoadLockedReq MSHR misses
system.cpu.dcache.demand_mshr_misses::switch_cpus.data       694222                       # number of demand (read+write) MSHR misses
system.cpu.dcache.demand_mshr_misses::total       694222                       # number of demand (read+write) MSHR misses
system.cpu.dcache.overall_mshr_misses::switch_cpus.data       694222                       # number of overall MSHR misses
system.cpu.dcache.overall_mshr_misses::total       694222                       # number of overall MSHR misses
system.cpu.dcache.ReadReq_mshr_miss_latency::switch_cpus.data  16922749000                       # number of ReadReq MSHR miss cycles
system.cpu.dcache.ReadReq_mshr_miss_latency::total  16922749000                       # number of ReadReq MSHR miss cycles
system.cpu.dcache.WriteReq_mshr_miss_latency::switch_cpus.data  16194383749                       # number of WriteReq MSHR miss cycles
system.cpu.dcache.WriteReq_mshr_miss_latency::total  16194383749                       # number of WriteReq MSHR miss cycles
system.cpu.dcache.LoadLockedReq_mshr_miss_latency::switch_cpus.data       122500                       # number of LoadLockedReq MSHR miss cycles
system.cpu.dcache.LoadLockedReq_mshr_miss_latency::total       122500                       # number of LoadLockedReq MSHR miss cycles
system.cpu.dcache.demand_mshr_miss_latency::switch_cpus.data  33117132749                       # number of demand (read+write) MSHR miss cycles
system.cpu.dcache.demand_mshr_miss_latency::total  33117132749                       # number of demand (read+write) MSHR miss cycles
system.cpu.dcache.overall_mshr_miss_latency::switch_cpus.data  33117132749                       # number of overall MSHR miss cycles
system.cpu.dcache.overall_mshr_miss_latency::total  33117132749                       # number of overall MSHR miss cycles
system.cpu.dcache.ReadReq_mshr_miss_rate::switch_cpus.data     0.001882                       # mshr miss rate for ReadReq accesses
system.cpu.dcache.ReadReq_mshr_miss_rate::total     0.001882                       # mshr miss rate for ReadReq accesses
system.cpu.dcache.WriteReq_mshr_miss_rate::switch_cpus.data     0.003700                       # mshr miss rate for WriteReq accesses
system.cpu.dcache.WriteReq_mshr_miss_rate::total     0.003700                       # mshr miss rate for WriteReq accesses
system.cpu.dcache.LoadLockedReq_mshr_miss_rate::switch_cpus.data     0.000639                       # mshr miss rate for LoadLockedReq accesses
system.cpu.dcache.LoadLockedReq_mshr_miss_rate::total     0.000639                       # mshr miss rate for LoadLockedReq accesses
system.cpu.dcache.demand_mshr_miss_rate::switch_cpus.data     0.002389                       # mshr miss rate for demand accesses
system.cpu.dcache.demand_mshr_miss_rate::total     0.002389                       # mshr miss rate for demand accesses
system.cpu.dcache.overall_mshr_miss_rate::switch_cpus.data     0.002389                       # mshr miss rate for overall accesses
system.cpu.dcache.overall_mshr_miss_rate::total     0.002389                       # mshr miss rate for overall accesses
system.cpu.dcache.ReadReq_avg_mshr_miss_latency::switch_cpus.data 42912.365984                       # average ReadReq mshr miss latency
system.cpu.dcache.ReadReq_avg_mshr_miss_latency::total 42912.365984                       # average ReadReq mshr miss latency
system.cpu.dcache.WriteReq_avg_mshr_miss_latency::switch_cpus.data 54005.401576                       # average WriteReq mshr miss latency
system.cpu.dcache.WriteReq_avg_mshr_miss_latency::total 54005.401576                       # average WriteReq mshr miss latency
system.cpu.dcache.LoadLockedReq_avg_mshr_miss_latency::switch_cpus.data        61250                       # average LoadLockedReq mshr miss latency
system.cpu.dcache.LoadLockedReq_avg_mshr_miss_latency::total        61250                       # average LoadLockedReq mshr miss latency
system.cpu.dcache.demand_avg_mshr_miss_latency::switch_cpus.data 47703.951688                       # average overall mshr miss latency
system.cpu.dcache.demand_avg_mshr_miss_latency::total 47703.951688                       # average overall mshr miss latency
system.cpu.dcache.overall_avg_mshr_miss_latency::switch_cpus.data 47703.951688                       # average overall mshr miss latency
system.cpu.dcache.overall_avg_mshr_miss_latency::total 47703.951688                       # average overall mshr miss latency
system.cpu.dcache.no_allocate_misses                0                       # Number of misses that were no-allocate

---------- End Simulation Statistics   ----------
