
---------- Begin Simulation Statistics ----------
sim_seconds                                  0.184957                       # Number of seconds simulated
sim_ticks                                184957465500                       # Number of ticks simulated
final_tick                               184959176000                       # Number of ticks from beginning of simulation (restored from checkpoints and never reset)
sim_freq                                 1000000000000                       # Frequency of simulated ticks
host_inst_rate                                  58220                       # Simulator instruction rate (inst/s)
host_op_rate                                    58220                       # Simulator op (including micro ops) rate (op/s)
host_tick_rate                               12687012                       # Simulator tick rate (ticks/s)
host_mem_usage                                 750516                       # Number of bytes of host memory used
host_seconds                                 14578.49                       # Real time elapsed on the host
sim_insts                                   848760841                       # Number of instructions simulated
sim_ops                                     848760841                       # Number of ops (including micro ops) simulated
system.physmem.bytes_read::switch_cpus.inst        62592                       # Number of bytes read from this memory
system.physmem.bytes_read::switch_cpus.data     31489472                       # Number of bytes read from this memory
system.physmem.bytes_read::total             31552064                       # Number of bytes read from this memory
system.physmem.bytes_inst_read::switch_cpus.inst        62592                       # Number of instructions bytes read from this memory
system.physmem.bytes_inst_read::total           62592                       # Number of instructions bytes read from this memory
system.physmem.bytes_written::writebacks     15738048                       # Number of bytes written to this memory
system.physmem.bytes_written::total          15738048                       # Number of bytes written to this memory
system.physmem.num_reads::switch_cpus.inst          978                       # Number of read requests responded to by this memory
system.physmem.num_reads::switch_cpus.data       492023                       # Number of read requests responded to by this memory
system.physmem.num_reads::total                493001                       # Number of read requests responded to by this memory
system.physmem.num_writes::writebacks          245907                       # Number of write requests responded to by this memory
system.physmem.num_writes::total               245907                       # Number of write requests responded to by this memory
system.physmem.bw_read::switch_cpus.inst       338413                       # Total read bandwidth from this memory (bytes/s)
system.physmem.bw_read::switch_cpus.data    170252506                       # Total read bandwidth from this memory (bytes/s)
system.physmem.bw_read::total               170590919                       # Total read bandwidth from this memory (bytes/s)
system.physmem.bw_inst_read::switch_cpus.inst       338413                       # Instruction read bandwidth from this memory (bytes/s)
system.physmem.bw_inst_read::total             338413                       # Instruction read bandwidth from this memory (bytes/s)
system.physmem.bw_write::writebacks          85090093                       # Write bandwidth from this memory (bytes/s)
system.physmem.bw_write::total               85090093                       # Write bandwidth from this memory (bytes/s)
system.physmem.bw_total::writebacks          85090093                       # Total bandwidth to/from this memory (bytes/s)
system.physmem.bw_total::switch_cpus.inst       338413                       # Total bandwidth to/from this memory (bytes/s)
system.physmem.bw_total::switch_cpus.data    170252506                       # Total bandwidth to/from this memory (bytes/s)
system.physmem.bw_total::total              255681012                       # Total bandwidth to/from this memory (bytes/s)
system.physmem.readReqs                        493002                       # Total number of read requests seen
system.physmem.writeReqs                       245907                       # Total number of write requests seen
system.physmem.cpureqs                         738909                       # Reqs generatd by CPU via cache - shady
system.physmem.bytesRead                     31552064                       # Total number of bytes read from memory
system.physmem.bytesWritten                  15738048                       # Total number of bytes written to memory
system.physmem.bytesConsumedRd               31552064                       # bytesRead derated as per pkt->getSize()
system.physmem.bytesConsumedWr               15738048                       # bytesWritten derated as per pkt->getSize()
system.physmem.servicedByWrQ                       14                       # Number of read reqs serviced by write Q
system.physmem.neitherReadNorWrite                  0                       # Reqs where no action is needed
system.physmem.perBankRdReqs::0                 30897                       # Track reads on a per bank basis
system.physmem.perBankRdReqs::1                 30792                       # Track reads on a per bank basis
system.physmem.perBankRdReqs::2                 30865                       # Track reads on a per bank basis
system.physmem.perBankRdReqs::3                 30735                       # Track reads on a per bank basis
system.physmem.perBankRdReqs::4                 30763                       # Track reads on a per bank basis
system.physmem.perBankRdReqs::5                 30769                       # Track reads on a per bank basis
system.physmem.perBankRdReqs::6                 30767                       # Track reads on a per bank basis
system.physmem.perBankRdReqs::7                 30810                       # Track reads on a per bank basis
system.physmem.perBankRdReqs::8                 30747                       # Track reads on a per bank basis
system.physmem.perBankRdReqs::9                 30760                       # Track reads on a per bank basis
system.physmem.perBankRdReqs::10                30766                       # Track reads on a per bank basis
system.physmem.perBankRdReqs::11                30882                       # Track reads on a per bank basis
system.physmem.perBankRdReqs::12                30909                       # Track reads on a per bank basis
system.physmem.perBankRdReqs::13                30854                       # Track reads on a per bank basis
system.physmem.perBankRdReqs::14                30773                       # Track reads on a per bank basis
system.physmem.perBankRdReqs::15                30899                       # Track reads on a per bank basis
system.physmem.perBankWrReqs::0                 15361                       # Track writes on a per bank basis
system.physmem.perBankWrReqs::1                 15361                       # Track writes on a per bank basis
system.physmem.perBankWrReqs::2                 15360                       # Track writes on a per bank basis
system.physmem.perBankWrReqs::3                 15360                       # Track writes on a per bank basis
system.physmem.perBankWrReqs::4                 15368                       # Track writes on a per bank basis
system.physmem.perBankWrReqs::5                 15406                       # Track writes on a per bank basis
system.physmem.perBankWrReqs::6                 15360                       # Track writes on a per bank basis
system.physmem.perBankWrReqs::7                 15360                       # Track writes on a per bank basis
system.physmem.perBankWrReqs::8                 15360                       # Track writes on a per bank basis
system.physmem.perBankWrReqs::9                 15360                       # Track writes on a per bank basis
system.physmem.perBankWrReqs::10                15361                       # Track writes on a per bank basis
system.physmem.perBankWrReqs::11                15409                       # Track writes on a per bank basis
system.physmem.perBankWrReqs::12                15395                       # Track writes on a per bank basis
system.physmem.perBankWrReqs::13                15360                       # Track writes on a per bank basis
system.physmem.perBankWrReqs::14                15366                       # Track writes on a per bank basis
system.physmem.perBankWrReqs::15                15360                       # Track writes on a per bank basis
system.physmem.numRdRetry                           0                       # Number of times rd buffer was full causing retry
system.physmem.numWrRetry                           0                       # Number of times wr buffer was full causing retry
system.physmem.totGap                    184957435500                       # Total gap between requests
system.physmem.readPktSize::0                       0                       # Categorize read packet sizes
system.physmem.readPktSize::1                       0                       # Categorize read packet sizes
system.physmem.readPktSize::2                       0                       # Categorize read packet sizes
system.physmem.readPktSize::3                       0                       # Categorize read packet sizes
system.physmem.readPktSize::4                       0                       # Categorize read packet sizes
system.physmem.readPktSize::5                       0                       # Categorize read packet sizes
system.physmem.readPktSize::6                  493002                       # Categorize read packet sizes
system.physmem.writePktSize::0                      0                       # Categorize write packet sizes
system.physmem.writePktSize::1                      0                       # Categorize write packet sizes
system.physmem.writePktSize::2                      0                       # Categorize write packet sizes
system.physmem.writePktSize::3                      0                       # Categorize write packet sizes
system.physmem.writePktSize::4                      0                       # Categorize write packet sizes
system.physmem.writePktSize::5                      0                       # Categorize write packet sizes
system.physmem.writePktSize::6                 245907                       # Categorize write packet sizes
system.physmem.rdQLenPdf::0                    492424                       # What read queue length does an incoming req see
system.physmem.rdQLenPdf::1                       433                       # What read queue length does an incoming req see
system.physmem.rdQLenPdf::2                       105                       # What read queue length does an incoming req see
system.physmem.rdQLenPdf::3                        24                       # What read queue length does an incoming req see
system.physmem.rdQLenPdf::4                         2                       # What read queue length does an incoming req see
system.physmem.rdQLenPdf::5                         0                       # What read queue length does an incoming req see
system.physmem.rdQLenPdf::6                         0                       # What read queue length does an incoming req see
system.physmem.rdQLenPdf::7                         0                       # What read queue length does an incoming req see
system.physmem.rdQLenPdf::8                         0                       # What read queue length does an incoming req see
system.physmem.rdQLenPdf::9                         0                       # What read queue length does an incoming req see
system.physmem.rdQLenPdf::10                        0                       # What read queue length does an incoming req see
system.physmem.rdQLenPdf::11                        0                       # What read queue length does an incoming req see
system.physmem.rdQLenPdf::12                        0                       # What read queue length does an incoming req see
system.physmem.rdQLenPdf::13                        0                       # What read queue length does an incoming req see
system.physmem.rdQLenPdf::14                        0                       # What read queue length does an incoming req see
system.physmem.rdQLenPdf::15                        0                       # What read queue length does an incoming req see
system.physmem.rdQLenPdf::16                        0                       # What read queue length does an incoming req see
system.physmem.rdQLenPdf::17                        0                       # What read queue length does an incoming req see
system.physmem.rdQLenPdf::18                        0                       # What read queue length does an incoming req see
system.physmem.rdQLenPdf::19                        0                       # What read queue length does an incoming req see
system.physmem.rdQLenPdf::20                        0                       # What read queue length does an incoming req see
system.physmem.rdQLenPdf::21                        0                       # What read queue length does an incoming req see
system.physmem.rdQLenPdf::22                        0                       # What read queue length does an incoming req see
system.physmem.rdQLenPdf::23                        0                       # What read queue length does an incoming req see
system.physmem.rdQLenPdf::24                        0                       # What read queue length does an incoming req see
system.physmem.rdQLenPdf::25                        0                       # What read queue length does an incoming req see
system.physmem.rdQLenPdf::26                        0                       # What read queue length does an incoming req see
system.physmem.rdQLenPdf::27                        0                       # What read queue length does an incoming req see
system.physmem.rdQLenPdf::28                        0                       # What read queue length does an incoming req see
system.physmem.rdQLenPdf::29                        0                       # What read queue length does an incoming req see
system.physmem.rdQLenPdf::30                        0                       # What read queue length does an incoming req see
system.physmem.rdQLenPdf::31                        0                       # What read queue length does an incoming req see
system.physmem.wrQLenPdf::0                     10685                       # What write queue length does an incoming req see
system.physmem.wrQLenPdf::1                     10692                       # What write queue length does an incoming req see
system.physmem.wrQLenPdf::2                     10692                       # What write queue length does an incoming req see
system.physmem.wrQLenPdf::3                     10692                       # What write queue length does an incoming req see
system.physmem.wrQLenPdf::4                     10692                       # What write queue length does an incoming req see
system.physmem.wrQLenPdf::5                     10692                       # What write queue length does an incoming req see
system.physmem.wrQLenPdf::6                     10692                       # What write queue length does an incoming req see
system.physmem.wrQLenPdf::7                     10692                       # What write queue length does an incoming req see
system.physmem.wrQLenPdf::8                     10692                       # What write queue length does an incoming req see
system.physmem.wrQLenPdf::9                     10692                       # What write queue length does an incoming req see
system.physmem.wrQLenPdf::10                    10692                       # What write queue length does an incoming req see
system.physmem.wrQLenPdf::11                    10692                       # What write queue length does an incoming req see
system.physmem.wrQLenPdf::12                    10692                       # What write queue length does an incoming req see
system.physmem.wrQLenPdf::13                    10692                       # What write queue length does an incoming req see
system.physmem.wrQLenPdf::14                    10691                       # What write queue length does an incoming req see
system.physmem.wrQLenPdf::15                    10691                       # What write queue length does an incoming req see
system.physmem.wrQLenPdf::16                    10691                       # What write queue length does an incoming req see
system.physmem.wrQLenPdf::17                    10691                       # What write queue length does an incoming req see
system.physmem.wrQLenPdf::18                    10691                       # What write queue length does an incoming req see
system.physmem.wrQLenPdf::19                    10691                       # What write queue length does an incoming req see
system.physmem.wrQLenPdf::20                    10691                       # What write queue length does an incoming req see
system.physmem.wrQLenPdf::21                    10691                       # What write queue length does an incoming req see
system.physmem.wrQLenPdf::22                    10691                       # What write queue length does an incoming req see
system.physmem.wrQLenPdf::23                        7                       # What write queue length does an incoming req see
system.physmem.wrQLenPdf::24                        0                       # What write queue length does an incoming req see
system.physmem.wrQLenPdf::25                        0                       # What write queue length does an incoming req see
system.physmem.wrQLenPdf::26                        0                       # What write queue length does an incoming req see
system.physmem.wrQLenPdf::27                        0                       # What write queue length does an incoming req see
system.physmem.wrQLenPdf::28                        0                       # What write queue length does an incoming req see
system.physmem.wrQLenPdf::29                        0                       # What write queue length does an incoming req see
system.physmem.wrQLenPdf::30                        0                       # What write queue length does an incoming req see
system.physmem.wrQLenPdf::31                        0                       # What write queue length does an incoming req see
system.physmem.bytesPerActivate::samples        35617                       # Bytes accessed per row activation
system.physmem.bytesPerActivate::mean     1326.261055                       # Bytes accessed per row activation
system.physmem.bytesPerActivate::gmean     624.473729                       # Bytes accessed per row activation
system.physmem.bytesPerActivate::stdev    1961.177189                       # Bytes accessed per row activation
system.physmem.bytesPerActivate::64-65           4262     11.97%     11.97% # Bytes accessed per row activation
system.physmem.bytesPerActivate::128-129         3509      9.85%     21.82% # Bytes accessed per row activation
system.physmem.bytesPerActivate::192-193          541      1.52%     23.34% # Bytes accessed per row activation
system.physmem.bytesPerActivate::256-257          633      1.78%     25.11% # Bytes accessed per row activation
system.physmem.bytesPerActivate::320-321          554      1.56%     26.67% # Bytes accessed per row activation
system.physmem.bytesPerActivate::384-385          754      2.12%     28.79% # Bytes accessed per row activation
system.physmem.bytesPerActivate::448-449         1543      4.33%     33.12% # Bytes accessed per row activation
system.physmem.bytesPerActivate::512-513         2369      6.65%     39.77% # Bytes accessed per row activation
system.physmem.bytesPerActivate::576-577          657      1.84%     41.61% # Bytes accessed per row activation
system.physmem.bytesPerActivate::640-641          625      1.75%     43.37% # Bytes accessed per row activation
system.physmem.bytesPerActivate::704-705          493      1.38%     44.75% # Bytes accessed per row activation
system.physmem.bytesPerActivate::768-769          511      1.43%     46.19% # Bytes accessed per row activation
system.physmem.bytesPerActivate::832-833          567      1.59%     47.78% # Bytes accessed per row activation
system.physmem.bytesPerActivate::896-897          766      2.15%     49.93% # Bytes accessed per row activation
system.physmem.bytesPerActivate::960-961         3469      9.74%     59.67% # Bytes accessed per row activation
system.physmem.bytesPerActivate::1024-1025         2044      5.74%     65.41% # Bytes accessed per row activation
system.physmem.bytesPerActivate::1088-1089          548      1.54%     66.95% # Bytes accessed per row activation
system.physmem.bytesPerActivate::1152-1153          518      1.45%     68.40% # Bytes accessed per row activation
system.physmem.bytesPerActivate::1216-1217          450      1.26%     69.67% # Bytes accessed per row activation
system.physmem.bytesPerActivate::1280-1281          510      1.43%     71.10% # Bytes accessed per row activation
system.physmem.bytesPerActivate::1344-1345          529      1.49%     72.58% # Bytes accessed per row activation
system.physmem.bytesPerActivate::1408-1409          724      2.03%     74.62% # Bytes accessed per row activation
system.physmem.bytesPerActivate::1472-1473         4838     13.58%     88.20% # Bytes accessed per row activation
system.physmem.bytesPerActivate::1536-1537          141      0.40%     88.60% # Bytes accessed per row activation
system.physmem.bytesPerActivate::1600-1601          108      0.30%     88.90% # Bytes accessed per row activation
system.physmem.bytesPerActivate::1664-1665          102      0.29%     89.18% # Bytes accessed per row activation
system.physmem.bytesPerActivate::1728-1729           76      0.21%     89.40% # Bytes accessed per row activation
system.physmem.bytesPerActivate::1792-1793           66      0.19%     89.58% # Bytes accessed per row activation
system.physmem.bytesPerActivate::1856-1857           76      0.21%     89.80% # Bytes accessed per row activation
system.physmem.bytesPerActivate::1920-1921           73      0.20%     90.00% # Bytes accessed per row activation
system.physmem.bytesPerActivate::1984-1985           74      0.21%     90.21% # Bytes accessed per row activation
system.physmem.bytesPerActivate::2048-2049           70      0.20%     90.41% # Bytes accessed per row activation
system.physmem.bytesPerActivate::2112-2113           85      0.24%     90.64% # Bytes accessed per row activation
system.physmem.bytesPerActivate::2176-2177           35      0.10%     90.74% # Bytes accessed per row activation
system.physmem.bytesPerActivate::2240-2241           28      0.08%     90.82% # Bytes accessed per row activation
system.physmem.bytesPerActivate::2304-2305           29      0.08%     90.90% # Bytes accessed per row activation
system.physmem.bytesPerActivate::2368-2369           28      0.08%     90.98% # Bytes accessed per row activation
system.physmem.bytesPerActivate::2432-2433           24      0.07%     91.05% # Bytes accessed per row activation
system.physmem.bytesPerActivate::2496-2497           19      0.05%     91.10% # Bytes accessed per row activation
system.physmem.bytesPerActivate::2560-2561           26      0.07%     91.18% # Bytes accessed per row activation
system.physmem.bytesPerActivate::2624-2625           25      0.07%     91.25% # Bytes accessed per row activation
system.physmem.bytesPerActivate::2688-2689           21      0.06%     91.30% # Bytes accessed per row activation
system.physmem.bytesPerActivate::2752-2753           22      0.06%     91.37% # Bytes accessed per row activation
system.physmem.bytesPerActivate::2816-2817           17      0.05%     91.41% # Bytes accessed per row activation
system.physmem.bytesPerActivate::2880-2881           37      0.10%     91.52% # Bytes accessed per row activation
system.physmem.bytesPerActivate::2944-2945           29      0.08%     91.60% # Bytes accessed per row activation
system.physmem.bytesPerActivate::3008-3009           12      0.03%     91.63% # Bytes accessed per row activation
system.physmem.bytesPerActivate::3072-3073           21      0.06%     91.69% # Bytes accessed per row activation
system.physmem.bytesPerActivate::3136-3137           13      0.04%     91.73% # Bytes accessed per row activation
system.physmem.bytesPerActivate::3200-3201           19      0.05%     91.78% # Bytes accessed per row activation
system.physmem.bytesPerActivate::3264-3265           15      0.04%     91.82% # Bytes accessed per row activation
system.physmem.bytesPerActivate::3328-3329            8      0.02%     91.85% # Bytes accessed per row activation
system.physmem.bytesPerActivate::3392-3393           14      0.04%     91.89% # Bytes accessed per row activation
system.physmem.bytesPerActivate::3456-3457            7      0.02%     91.91% # Bytes accessed per row activation
system.physmem.bytesPerActivate::3520-3521           16      0.04%     91.95% # Bytes accessed per row activation
system.physmem.bytesPerActivate::3584-3585           13      0.04%     91.99% # Bytes accessed per row activation
system.physmem.bytesPerActivate::3648-3649           10      0.03%     92.02% # Bytes accessed per row activation
system.physmem.bytesPerActivate::3712-3713            8      0.02%     92.04% # Bytes accessed per row activation
system.physmem.bytesPerActivate::3776-3777           11      0.03%     92.07% # Bytes accessed per row activation
system.physmem.bytesPerActivate::3840-3841            9      0.03%     92.09% # Bytes accessed per row activation
system.physmem.bytesPerActivate::3904-3905            7      0.02%     92.11% # Bytes accessed per row activation
system.physmem.bytesPerActivate::3968-3969           10      0.03%     92.14% # Bytes accessed per row activation
system.physmem.bytesPerActivate::4032-4033           26      0.07%     92.21% # Bytes accessed per row activation
system.physmem.bytesPerActivate::4096-4097           15      0.04%     92.26% # Bytes accessed per row activation
system.physmem.bytesPerActivate::4160-4161           33      0.09%     92.35% # Bytes accessed per row activation
system.physmem.bytesPerActivate::4224-4225           10      0.03%     92.38% # Bytes accessed per row activation
system.physmem.bytesPerActivate::4288-4289            8      0.02%     92.40% # Bytes accessed per row activation
system.physmem.bytesPerActivate::4352-4353           12      0.03%     92.43% # Bytes accessed per row activation
system.physmem.bytesPerActivate::4416-4417           17      0.05%     92.48% # Bytes accessed per row activation
system.physmem.bytesPerActivate::4480-4481           16      0.04%     92.53% # Bytes accessed per row activation
system.physmem.bytesPerActivate::4544-4545            6      0.02%     92.54% # Bytes accessed per row activation
system.physmem.bytesPerActivate::4608-4609            9      0.03%     92.57% # Bytes accessed per row activation
system.physmem.bytesPerActivate::4672-4673            7      0.02%     92.59% # Bytes accessed per row activation
system.physmem.bytesPerActivate::4736-4737            4      0.01%     92.60% # Bytes accessed per row activation
system.physmem.bytesPerActivate::4800-4801           12      0.03%     92.63% # Bytes accessed per row activation
system.physmem.bytesPerActivate::4864-4865           15      0.04%     92.67% # Bytes accessed per row activation
system.physmem.bytesPerActivate::4928-4929            3      0.01%     92.68% # Bytes accessed per row activation
system.physmem.bytesPerActivate::4992-4993           10      0.03%     92.71% # Bytes accessed per row activation
system.physmem.bytesPerActivate::5056-5057            9      0.03%     92.74% # Bytes accessed per row activation
system.physmem.bytesPerActivate::5120-5121           18      0.05%     92.79% # Bytes accessed per row activation
system.physmem.bytesPerActivate::5184-5185            6      0.02%     92.80% # Bytes accessed per row activation
system.physmem.bytesPerActivate::5248-5249           11      0.03%     92.83% # Bytes accessed per row activation
system.physmem.bytesPerActivate::5312-5313            7      0.02%     92.85% # Bytes accessed per row activation
system.physmem.bytesPerActivate::5376-5377            4      0.01%     92.87% # Bytes accessed per row activation
system.physmem.bytesPerActivate::5440-5441            4      0.01%     92.88% # Bytes accessed per row activation
system.physmem.bytesPerActivate::5504-5505            6      0.02%     92.89% # Bytes accessed per row activation
system.physmem.bytesPerActivate::5568-5569            9      0.03%     92.92% # Bytes accessed per row activation
system.physmem.bytesPerActivate::5632-5633            5      0.01%     92.93% # Bytes accessed per row activation
system.physmem.bytesPerActivate::5696-5697            9      0.03%     92.96% # Bytes accessed per row activation
system.physmem.bytesPerActivate::5760-5761            8      0.02%     92.98% # Bytes accessed per row activation
system.physmem.bytesPerActivate::5824-5825            7      0.02%     93.00% # Bytes accessed per row activation
system.physmem.bytesPerActivate::5888-5889            6      0.02%     93.02% # Bytes accessed per row activation
system.physmem.bytesPerActivate::5952-5953            7      0.02%     93.04% # Bytes accessed per row activation
system.physmem.bytesPerActivate::6016-6017            8      0.02%     93.06% # Bytes accessed per row activation
system.physmem.bytesPerActivate::6080-6081           30      0.08%     93.14% # Bytes accessed per row activation
system.physmem.bytesPerActivate::6144-6145           12      0.03%     93.18% # Bytes accessed per row activation
system.physmem.bytesPerActivate::6208-6209           28      0.08%     93.26% # Bytes accessed per row activation
system.physmem.bytesPerActivate::6272-6273            9      0.03%     93.28% # Bytes accessed per row activation
system.physmem.bytesPerActivate::6336-6337            8      0.02%     93.30% # Bytes accessed per row activation
system.physmem.bytesPerActivate::6400-6401            8      0.02%     93.33% # Bytes accessed per row activation
system.physmem.bytesPerActivate::6464-6465           11      0.03%     93.36% # Bytes accessed per row activation
system.physmem.bytesPerActivate::6528-6529           10      0.03%     93.39% # Bytes accessed per row activation
system.physmem.bytesPerActivate::6592-6593            4      0.01%     93.40% # Bytes accessed per row activation
system.physmem.bytesPerActivate::6656-6657            3      0.01%     93.40% # Bytes accessed per row activation
system.physmem.bytesPerActivate::6720-6721            5      0.01%     93.42% # Bytes accessed per row activation
system.physmem.bytesPerActivate::6784-6785           10      0.03%     93.45% # Bytes accessed per row activation
system.physmem.bytesPerActivate::6848-6849           11      0.03%     93.48% # Bytes accessed per row activation
system.physmem.bytesPerActivate::6912-6913           10      0.03%     93.51% # Bytes accessed per row activation
system.physmem.bytesPerActivate::6976-6977            2      0.01%     93.51% # Bytes accessed per row activation
system.physmem.bytesPerActivate::7040-7041            8      0.02%     93.53% # Bytes accessed per row activation
system.physmem.bytesPerActivate::7104-7105            9      0.03%     93.56% # Bytes accessed per row activation
system.physmem.bytesPerActivate::7168-7169            8      0.02%     93.58% # Bytes accessed per row activation
system.physmem.bytesPerActivate::7232-7233            9      0.03%     93.61% # Bytes accessed per row activation
system.physmem.bytesPerActivate::7296-7297           13      0.04%     93.64% # Bytes accessed per row activation
system.physmem.bytesPerActivate::7360-7361            8      0.02%     93.67% # Bytes accessed per row activation
system.physmem.bytesPerActivate::7424-7425            9      0.03%     93.69% # Bytes accessed per row activation
system.physmem.bytesPerActivate::7488-7489            5      0.01%     93.71% # Bytes accessed per row activation
system.physmem.bytesPerActivate::7552-7553            6      0.02%     93.72% # Bytes accessed per row activation
system.physmem.bytesPerActivate::7616-7617            5      0.01%     93.74% # Bytes accessed per row activation
system.physmem.bytesPerActivate::7680-7681           12      0.03%     93.77% # Bytes accessed per row activation
system.physmem.bytesPerActivate::7744-7745            9      0.03%     93.80% # Bytes accessed per row activation
system.physmem.bytesPerActivate::7808-7809            7      0.02%     93.81% # Bytes accessed per row activation
system.physmem.bytesPerActivate::7872-7873            5      0.01%     93.83% # Bytes accessed per row activation
system.physmem.bytesPerActivate::7936-7937            6      0.02%     93.85% # Bytes accessed per row activation
system.physmem.bytesPerActivate::8000-8001            6      0.02%     93.86% # Bytes accessed per row activation
system.physmem.bytesPerActivate::8064-8065           13      0.04%     93.90% # Bytes accessed per row activation
system.physmem.bytesPerActivate::8128-8129           35      0.10%     94.00% # Bytes accessed per row activation
system.physmem.bytesPerActivate::8192-8193         2138      6.00%    100.00% # Bytes accessed per row activation
system.physmem.bytesPerActivate::total          35617                       # Bytes accessed per row activation
system.physmem.totQLat                      337683000                       # Total cycles spent in queuing delays
system.physmem.totMemAccLat               10004543000                       # Sum of mem lat for all requests
system.physmem.totBusLat                   2464940000                       # Total cycles spent in databus access
system.physmem.totBankLat                  7201920000                       # Total cycles spent in bank access
system.physmem.avgQLat                         684.97                       # Average queueing delay per request
system.physmem.avgBankLat                    14608.71                       # Average bank access latency per request
system.physmem.avgBusLat                      5000.00                       # Average bus latency per request
system.physmem.avgMemAccLat                  20293.68                       # Average memory access latency
system.physmem.avgRdBW                         170.59                       # Average achieved read bandwidth in MB/s
system.physmem.avgWrBW                          85.09                       # Average achieved write bandwidth in MB/s
system.physmem.avgConsumedRdBW                 170.59                       # Average consumed read bandwidth in MB/s
system.physmem.avgConsumedWrBW                  85.09                       # Average consumed write bandwidth in MB/s
system.physmem.peakBW                        12800.00                       # Theoretical peak bandwidth in MB/s
system.physmem.busUtil                           2.00                       # Data bus utilization in percentage
system.physmem.avgRdQLen                         0.05                       # Average read queue length over time
system.physmem.avgWrQLen                        11.26                       # Average write queue length over time
system.physmem.readRowHits                     471439                       # Number of row buffer hits during reads
system.physmem.writeRowHits                    231825                       # Number of row buffer hits during writes
system.physmem.readRowHitRate                   95.63                       # Row buffer hit rate for reads
system.physmem.writeRowHitRate                  94.27                       # Row buffer hit rate for writes
system.physmem.avgGap                       250311.52                       # Average gap between requests
system.membus.throughput                    255680666                       # Throughput (bytes/s)
system.membus.trans_dist::ReadReq              247015                       # Transaction distribution
system.membus.trans_dist::ReadResp             247013                       # Transaction distribution
system.membus.trans_dist::Writeback            245907                       # Transaction distribution
system.membus.trans_dist::ReadExReq            245987                       # Transaction distribution
system.membus.trans_dist::ReadExResp           245987                       # Transaction distribution
system.membus.pkt_count_system.l2.mem_side      1231909                       # Packet count per connected master and slave (bytes)
system.membus.pkt_count                       1231909                       # Packet count per connected master and slave (bytes)
system.membus.tot_pkt_size_system.l2.mem_side     47290048                       # Cumulative packet size per connected master and slave (bytes)
system.membus.tot_pkt_size                   47290048                       # Cumulative packet size per connected master and slave (bytes)
system.membus.data_through_bus               47290048                       # Total data (bytes)
system.membus.snoop_data_through_bus                0                       # Total snoop data (bytes)
system.membus.reqLayer0.occupancy          1353082500                       # Layer occupancy (ticks)
system.membus.reqLayer0.utilization               0.7                       # Layer utilization (%)
system.membus.respLayer1.occupancy         2338628500                       # Layer occupancy (ticks)
system.membus.respLayer1.utilization              1.3                       # Layer utilization (%)
system.switch_cpus.branchPred.lookups        28915630                       # Number of BP lookups
system.switch_cpus.branchPred.condPredicted      9999986                       # Number of conditional branches predicted
system.switch_cpus.branchPred.condIncorrect        13864                       # Number of conditional branches incorrect
system.switch_cpus.branchPred.BTBLookups     18370768                       # Number of BTB lookups
system.switch_cpus.branchPred.BTBHits        18366475                       # Number of BTB hits
system.switch_cpus.branchPred.BTBCorrect            0                       # Number of correct BTB predictions (this stat may not work properly.
system.switch_cpus.branchPred.BTBHitPct     99.976631                       # BTB Hit Percentage
system.switch_cpus.branchPred.usedRAS         9449994                       # Number of times the RAS was used to get a target.
system.switch_cpus.branchPred.RASInCorrect          108                       # Number of incorrect RAS predictions.
system.switch_cpus.dtb.fetch_hits                   0                       # ITB hits
system.switch_cpus.dtb.fetch_misses                 0                       # ITB misses
system.switch_cpus.dtb.fetch_acv                    0                       # ITB acv
system.switch_cpus.dtb.fetch_accesses               0                       # ITB accesses
system.switch_cpus.dtb.read_hits            242277268                       # DTB read hits
system.switch_cpus.dtb.read_misses               4513                       # DTB read misses
system.switch_cpus.dtb.read_acv                     1                       # DTB read access violations
system.switch_cpus.dtb.read_accesses        242281781                       # DTB read accesses
system.switch_cpus.dtb.write_hits            81090131                       # DTB write hits
system.switch_cpus.dtb.write_misses              2252                       # DTB write misses
system.switch_cpus.dtb.write_acv                    0                       # DTB write access violations
system.switch_cpus.dtb.write_accesses        81092383                       # DTB write accesses
system.switch_cpus.dtb.data_hits            323367399                       # DTB hits
system.switch_cpus.dtb.data_misses               6765                       # DTB misses
system.switch_cpus.dtb.data_acv                     1                       # DTB access violations
system.switch_cpus.dtb.data_accesses        323374164                       # DTB accesses
system.switch_cpus.itb.fetch_hits            77407370                       # ITB hits
system.switch_cpus.itb.fetch_misses               105                       # ITB misses
system.switch_cpus.itb.fetch_acv                    0                       # ITB acv
system.switch_cpus.itb.fetch_accesses        77407475                       # ITB accesses
system.switch_cpus.itb.read_hits                    0                       # DTB read hits
system.switch_cpus.itb.read_misses                  0                       # DTB read misses
system.switch_cpus.itb.read_acv                     0                       # DTB read access violations
system.switch_cpus.itb.read_accesses                0                       # DTB read accesses
system.switch_cpus.itb.write_hits                   0                       # DTB write hits
system.switch_cpus.itb.write_misses                 0                       # DTB write misses
system.switch_cpus.itb.write_acv                    0                       # DTB write access violations
system.switch_cpus.itb.write_accesses               0                       # DTB write accesses
system.switch_cpus.itb.data_hits                    0                       # DTB hits
system.switch_cpus.itb.data_misses                  0                       # DTB misses
system.switch_cpus.itb.data_acv                     0                       # DTB access violations
system.switch_cpus.itb.data_accesses                0                       # DTB accesses
system.cpu.workload.num_syscalls                  503                       # Number of system calls
system.switch_cpus.numCycles                369914931                       # number of cpu cycles simulated
system.switch_cpus.numWorkItemsStarted              0                       # number of work items this cpu started
system.switch_cpus.numWorkItemsCompleted            0                       # number of work items this cpu completed
system.switch_cpus.fetch.icacheStallCycles     77449281                       # Number of cycles fetch is stalled on an Icache miss
system.switch_cpus.fetch.Insts              878427786                       # Number of instructions fetch has processed
system.switch_cpus.fetch.Branches            28915630                       # Number of branches that fetch encountered
system.switch_cpus.fetch.predictedBranches     27816469                       # Number of branches that fetch has predicted taken
system.switch_cpus.fetch.Cycles             128291317                       # Number of cycles fetch has run and was not squashing or blocked
system.switch_cpus.fetch.SquashCycles          158775                       # Number of cycles fetch has spent squashing
system.switch_cpus.fetch.BlockedCycles      132081673                       # Number of cycles fetch has spent blocked
system.switch_cpus.fetch.MiscStallCycles           63                       # Number of cycles fetch has spent waiting on interrupts, or bad addresses, or out of MSHRs
system.switch_cpus.fetch.PendingTrapStallCycles         1569                       # Number of stall cycles due to pending traps
system.switch_cpus.fetch.IcacheWaitRetryStallCycles           49                       # Number of stall cycles due to full MSHR
system.switch_cpus.fetch.CacheLines          77407370                       # Number of cache lines fetched
system.switch_cpus.fetch.IcacheSquashes          7298                       # Number of outstanding Icache misses that were squashed
system.switch_cpus.fetch.rateDist::samples    337952322                       # Number of instructions fetched each cycle (Total)
system.switch_cpus.fetch.rateDist::mean      2.599265                       # Number of instructions fetched each cycle (Total)
system.switch_cpus.fetch.rateDist::stdev     3.577691                       # Number of instructions fetched each cycle (Total)
system.switch_cpus.fetch.rateDist::underflows            0      0.00%      0.00% # Number of instructions fetched each cycle (Total)
system.switch_cpus.fetch.rateDist::0        209661005     62.04%     62.04% # Number of instructions fetched each cycle (Total)
system.switch_cpus.fetch.rateDist::1          4471795      1.32%     63.36% # Number of instructions fetched each cycle (Total)
system.switch_cpus.fetch.rateDist::2          8510472      2.52%     65.88% # Number of instructions fetched each cycle (Total)
system.switch_cpus.fetch.rateDist::3          4218512      1.25%     67.13% # Number of instructions fetched each cycle (Total)
system.switch_cpus.fetch.rateDist::4          5090667      1.51%     68.63% # Number of instructions fetched each cycle (Total)
system.switch_cpus.fetch.rateDist::5          2643209      0.78%     69.42% # Number of instructions fetched each cycle (Total)
system.switch_cpus.fetch.rateDist::6          6231539      1.84%     71.26% # Number of instructions fetched each cycle (Total)
system.switch_cpus.fetch.rateDist::7          3689420      1.09%     72.35% # Number of instructions fetched each cycle (Total)
system.switch_cpus.fetch.rateDist::8         93435703     27.65%    100.00% # Number of instructions fetched each cycle (Total)
system.switch_cpus.fetch.rateDist::overflows            0      0.00%    100.00% # Number of instructions fetched each cycle (Total)
system.switch_cpus.fetch.rateDist::min_value            0                       # Number of instructions fetched each cycle (Total)
system.switch_cpus.fetch.rateDist::max_value            8                       # Number of instructions fetched each cycle (Total)
system.switch_cpus.fetch.rateDist::total    337952322                       # Number of instructions fetched each cycle (Total)
system.switch_cpus.fetch.branchRate          0.078168                       # Number of branch fetches per cycle
system.switch_cpus.fetch.rate                2.374675                       # Number of inst fetches per cycle
system.switch_cpus.decode.IdleCycles        105279840                       # Number of cycles decode is idle
system.switch_cpus.decode.BlockedCycles     104266128                       # Number of cycles decode is blocked
system.switch_cpus.decode.RunCycles         105574755                       # Number of cycles decode is running
system.switch_cpus.decode.UnblockCycles      22703700                       # Number of cycles decode is unblocking
system.switch_cpus.decode.SquashCycles         127898                       # Number of cycles decode is squashing
system.switch_cpus.decode.BranchResolved      9461769                       # Number of times decode resolved a branch
system.switch_cpus.decode.BranchMispred           485                       # Number of times decode detected a branch misprediction
system.switch_cpus.decode.DecodedInsts      878334430                       # Number of instructions handled by decode
system.switch_cpus.decode.SquashedInsts          1543                       # Number of squashed instructions handled by decode
system.switch_cpus.rename.SquashCycles         127898                       # Number of cycles rename is squashing
system.switch_cpus.rename.IdleCycles        112538400                       # Number of cycles rename is idle
system.switch_cpus.rename.BlockCycles        45646560                       # Number of cycles rename is blocking
system.switch_cpus.rename.serializeStallCycles       372376                       # count of cycles rename stalled for serializing inst
system.switch_cpus.rename.RunCycles         121071984                       # Number of cycles rename is running
system.switch_cpus.rename.UnblockCycles      58195103                       # Number of cycles rename is unblocking
system.switch_cpus.rename.RenamedInsts      878199435                       # Number of instructions processed by rename
system.switch_cpus.rename.ROBFullEvents            28                       # Number of times rename has blocked due to ROB full
system.switch_cpus.rename.IQFullEvents          25298                       # Number of times rename has blocked due to IQ full
system.switch_cpus.rename.LSQFullEvents      53510863                       # Number of times rename has blocked due to LSQ full
system.switch_cpus.rename.RenamedOperands    749239689                       # Number of destination operands rename has renamed
system.switch_cpus.rename.RenameLookups    1228551442                       # Number of register rename lookups that rename has made
system.switch_cpus.rename.int_rename_lookups    855111876                       # Number of integer rename lookups
system.switch_cpus.rename.fp_rename_lookups    373439566                       # Number of floating rename lookups
system.switch_cpus.rename.CommittedMaps     748287888                       # Number of HB maps that are committed
system.switch_cpus.rename.UndoneMaps           951801                       # Number of HB maps that are undone due to squashing
system.switch_cpus.rename.serializingInsts         5813                       # count of serializing insts renamed
system.switch_cpus.rename.tempSerializingInsts         3729                       # count of temporary serializing insts renamed
system.switch_cpus.rename.skidInsts         175085470                       # count of insts added to the skid buffer
system.switch_cpus.memDep0.insertedLoads    242357365                       # Number of loads inserted to the mem dependence unit.
system.switch_cpus.memDep0.insertedStores     81140960                       # Number of stores inserted to the mem dependence unit.
system.switch_cpus.memDep0.conflictingLoads     31771157                       # Number of conflicting loads.
system.switch_cpus.memDep0.conflictingStores      2396993                       # Number of conflicting stores.
system.switch_cpus.iq.iqInstsAdded          849710101                       # Number of instructions added to the IQ (excludes non-spec)
system.switch_cpus.iq.iqNonSpecInstsAdded         6877                       # Number of non-speculative instructions added to the IQ
system.switch_cpus.iq.iqInstsIssued         849305041                       # Number of instructions issued
system.switch_cpus.iq.iqSquashedInstsIssued        11674                       # Number of squashed instructions issued
system.switch_cpus.iq.iqSquashedInstsExamined       949960                       # Number of squashed instructions iterated over during squash; mainly for profiling
system.switch_cpus.iq.iqSquashedOperandsExamined       769896                       # Number of squashed operands that are examined and possibly removed from graph
system.switch_cpus.iq.iqSquashedNonSpecRemoved          115                       # Number of squashed non-spec instructions that were removed
system.switch_cpus.iq.issued_per_cycle::samples    337952322                       # Number of insts issued each cycle
system.switch_cpus.iq.issued_per_cycle::mean     2.513091                       # Number of insts issued each cycle
system.switch_cpus.iq.issued_per_cycle::stdev     1.589758                       # Number of insts issued each cycle
system.switch_cpus.iq.issued_per_cycle::underflows            0      0.00%      0.00% # Number of insts issued each cycle
system.switch_cpus.iq.issued_per_cycle::0     35395806     10.47%     10.47% # Number of insts issued each cycle
system.switch_cpus.iq.issued_per_cycle::1     63173648     18.69%     29.17% # Number of insts issued each cycle
system.switch_cpus.iq.issued_per_cycle::2     77687847     22.99%     52.15% # Number of insts issued each cycle
system.switch_cpus.iq.issued_per_cycle::3     70400974     20.83%     72.99% # Number of insts issued each cycle
system.switch_cpus.iq.issued_per_cycle::4     50025527     14.80%     87.79% # Number of insts issued each cycle
system.switch_cpus.iq.issued_per_cycle::5     30174946      8.93%     96.72% # Number of insts issued each cycle
system.switch_cpus.iq.issued_per_cycle::6      9391910      2.78%     99.50% # Number of insts issued each cycle
system.switch_cpus.iq.issued_per_cycle::7      1388833      0.41%     99.91% # Number of insts issued each cycle
system.switch_cpus.iq.issued_per_cycle::8       312831      0.09%    100.00% # Number of insts issued each cycle
system.switch_cpus.iq.issued_per_cycle::overflows            0      0.00%    100.00% # Number of insts issued each cycle
system.switch_cpus.iq.issued_per_cycle::min_value            0                       # Number of insts issued each cycle
system.switch_cpus.iq.issued_per_cycle::max_value            8                       # Number of insts issued each cycle
system.switch_cpus.iq.issued_per_cycle::total    337952322                       # Number of insts issued each cycle
system.switch_cpus.iq.fu_full::No_OpClass            0      0.00%      0.00% # attempts to use FU when none available
system.switch_cpus.iq.fu_full::IntAlu           44362      0.41%      0.41% # attempts to use FU when none available
system.switch_cpus.iq.fu_full::IntMult              0      0.00%      0.41% # attempts to use FU when none available
system.switch_cpus.iq.fu_full::IntDiv               0      0.00%      0.41% # attempts to use FU when none available
system.switch_cpus.iq.fu_full::FloatAdd             0      0.00%      0.41% # attempts to use FU when none available
system.switch_cpus.iq.fu_full::FloatCmp             0      0.00%      0.41% # attempts to use FU when none available
system.switch_cpus.iq.fu_full::FloatCvt       1458803     13.61%     14.02% # attempts to use FU when none available
system.switch_cpus.iq.fu_full::FloatMult       744665      6.95%     20.97% # attempts to use FU when none available
system.switch_cpus.iq.fu_full::FloatDiv             0      0.00%     20.97% # attempts to use FU when none available
system.switch_cpus.iq.fu_full::FloatSqrt            0      0.00%     20.97% # attempts to use FU when none available
system.switch_cpus.iq.fu_full::SimdAdd              0      0.00%     20.97% # attempts to use FU when none available
system.switch_cpus.iq.fu_full::SimdAddAcc            0      0.00%     20.97% # attempts to use FU when none available
system.switch_cpus.iq.fu_full::SimdAlu              0      0.00%     20.97% # attempts to use FU when none available
system.switch_cpus.iq.fu_full::SimdCmp              0      0.00%     20.97% # attempts to use FU when none available
system.switch_cpus.iq.fu_full::SimdCvt              0      0.00%     20.97% # attempts to use FU when none available
system.switch_cpus.iq.fu_full::SimdMisc             0      0.00%     20.97% # attempts to use FU when none available
system.switch_cpus.iq.fu_full::SimdMult             0      0.00%     20.97% # attempts to use FU when none available
system.switch_cpus.iq.fu_full::SimdMultAcc            0      0.00%     20.97% # attempts to use FU when none available
system.switch_cpus.iq.fu_full::SimdShift            0      0.00%     20.97% # attempts to use FU when none available
system.switch_cpus.iq.fu_full::SimdShiftAcc            0      0.00%     20.97% # attempts to use FU when none available
system.switch_cpus.iq.fu_full::SimdSqrt             0      0.00%     20.97% # attempts to use FU when none available
system.switch_cpus.iq.fu_full::SimdFloatAdd            0      0.00%     20.97% # attempts to use FU when none available
system.switch_cpus.iq.fu_full::SimdFloatAlu            0      0.00%     20.97% # attempts to use FU when none available
system.switch_cpus.iq.fu_full::SimdFloatCmp            0      0.00%     20.97% # attempts to use FU when none available
system.switch_cpus.iq.fu_full::SimdFloatCvt            0      0.00%     20.97% # attempts to use FU when none available
system.switch_cpus.iq.fu_full::SimdFloatDiv            0      0.00%     20.97% # attempts to use FU when none available
system.switch_cpus.iq.fu_full::SimdFloatMisc            0      0.00%     20.97% # attempts to use FU when none available
system.switch_cpus.iq.fu_full::SimdFloatMult            0      0.00%     20.97% # attempts to use FU when none available
system.switch_cpus.iq.fu_full::SimdFloatMultAcc            0      0.00%     20.97% # attempts to use FU when none available
system.switch_cpus.iq.fu_full::SimdFloatSqrt            0      0.00%     20.97% # attempts to use FU when none available
system.switch_cpus.iq.fu_full::MemRead        4024847     37.55%     58.53% # attempts to use FU when none available
system.switch_cpus.iq.fu_full::MemWrite       4445238     41.47%    100.00% # attempts to use FU when none available
system.switch_cpus.iq.fu_full::IprAccess            0      0.00%    100.00% # attempts to use FU when none available
system.switch_cpus.iq.fu_full::InstPrefetch            0      0.00%    100.00% # attempts to use FU when none available
system.switch_cpus.iq.FU_type_0::No_OpClass          393      0.00%      0.00% # Type of FU issued
system.switch_cpus.iq.FU_type_0::IntAlu     299334717     35.24%     35.24% # Type of FU issued
system.switch_cpus.iq.FU_type_0::IntMult     18887602      2.22%     37.47% # Type of FU issued
system.switch_cpus.iq.FU_type_0::IntDiv             0      0.00%     37.47% # Type of FU issued
system.switch_cpus.iq.FU_type_0::FloatAdd    127956940     15.07%     52.53% # Type of FU issued
system.switch_cpus.iq.FU_type_0::FloatCmp            3      0.00%     52.53% # Type of FU issued
system.switch_cpus.iq.FU_type_0::FloatCvt     48252003      5.68%     58.22% # Type of FU issued
system.switch_cpus.iq.FU_type_0::FloatMult     28320044      3.33%     61.55% # Type of FU issued
system.switch_cpus.iq.FU_type_0::FloatDiv      3147040      0.37%     61.92% # Type of FU issued
system.switch_cpus.iq.FU_type_0::FloatSqrt            0      0.00%     61.92% # Type of FU issued
system.switch_cpus.iq.FU_type_0::SimdAdd            0      0.00%     61.92% # Type of FU issued
system.switch_cpus.iq.FU_type_0::SimdAddAcc            0      0.00%     61.92% # Type of FU issued
system.switch_cpus.iq.FU_type_0::SimdAlu            0      0.00%     61.92% # Type of FU issued
system.switch_cpus.iq.FU_type_0::SimdCmp            0      0.00%     61.92% # Type of FU issued
system.switch_cpus.iq.FU_type_0::SimdCvt            0      0.00%     61.92% # Type of FU issued
system.switch_cpus.iq.FU_type_0::SimdMisc            0      0.00%     61.92% # Type of FU issued
system.switch_cpus.iq.FU_type_0::SimdMult            0      0.00%     61.92% # Type of FU issued
system.switch_cpus.iq.FU_type_0::SimdMultAcc            0      0.00%     61.92% # Type of FU issued
system.switch_cpus.iq.FU_type_0::SimdShift            0      0.00%     61.92% # Type of FU issued
system.switch_cpus.iq.FU_type_0::SimdShiftAcc            0      0.00%     61.92% # Type of FU issued
system.switch_cpus.iq.FU_type_0::SimdSqrt            0      0.00%     61.92% # Type of FU issued
system.switch_cpus.iq.FU_type_0::SimdFloatAdd            0      0.00%     61.92% # Type of FU issued
system.switch_cpus.iq.FU_type_0::SimdFloatAlu            0      0.00%     61.92% # Type of FU issued
system.switch_cpus.iq.FU_type_0::SimdFloatCmp            0      0.00%     61.92% # Type of FU issued
system.switch_cpus.iq.FU_type_0::SimdFloatCvt            0      0.00%     61.92% # Type of FU issued
system.switch_cpus.iq.FU_type_0::SimdFloatDiv            0      0.00%     61.92% # Type of FU issued
system.switch_cpus.iq.FU_type_0::SimdFloatMisc            0      0.00%     61.92% # Type of FU issued
system.switch_cpus.iq.FU_type_0::SimdFloatMult            0      0.00%     61.92% # Type of FU issued
system.switch_cpus.iq.FU_type_0::SimdFloatMultAcc            0      0.00%     61.92% # Type of FU issued
system.switch_cpus.iq.FU_type_0::SimdFloatSqrt            0      0.00%     61.92% # Type of FU issued
system.switch_cpus.iq.FU_type_0::MemRead    242309723     28.53%     90.45% # Type of FU issued
system.switch_cpus.iq.FU_type_0::MemWrite     81096576      9.55%    100.00% # Type of FU issued
system.switch_cpus.iq.FU_type_0::IprAccess            0      0.00%    100.00% # Type of FU issued
system.switch_cpus.iq.FU_type_0::InstPrefetch            0      0.00%    100.00% # Type of FU issued
system.switch_cpus.iq.FU_type_0::total      849305041                       # Type of FU issued
system.switch_cpus.iq.rate                   2.295947                       # Inst issue rate
system.switch_cpus.iq.fu_busy_cnt            10717915                       # FU busy when requested
system.switch_cpus.iq.fu_busy_rate           0.012620                       # FU busy rate (busy events/executed inst)
system.switch_cpus.iq.int_inst_queue_reads   1520623343                       # Number of integer instruction queue reads
system.switch_cpus.iq.int_inst_queue_writes    588347066                       # Number of integer instruction queue writes
system.switch_cpus.iq.int_inst_queue_wakeup_accesses    586990020                       # Number of integer instruction queue wakeup accesses
system.switch_cpus.iq.fp_inst_queue_reads    526668650                       # Number of floating instruction queue reads
system.switch_cpus.iq.fp_inst_queue_writes    262331986                       # Number of floating instruction queue writes
system.switch_cpus.iq.fp_inst_queue_wakeup_accesses    262222342                       # Number of floating instruction queue wakeup accesses
system.switch_cpus.iq.int_alu_accesses      595585377                       # Number of integer alu accesses
system.switch_cpus.iq.fp_alu_accesses       264437186                       # Number of floating point alu accesses
system.switch_cpus.iew.lsq.thread0.forwLoads     32693845                       # Number of loads that had data forwarded from stores
system.switch_cpus.iew.lsq.thread0.invAddrLoads            0                       # Number of loads ignored due to an invalid address
system.switch_cpus.iew.lsq.thread0.squashedLoads       306833                       # Number of loads squashed
system.switch_cpus.iew.lsq.thread0.ignoredResponses          721                       # Number of memory responses ignored because the instruction is squashed
system.switch_cpus.iew.lsq.thread0.memOrderViolation        12228                       # Number of memory ordering violations
system.switch_cpus.iew.lsq.thread0.squashedStores        94045                       # Number of stores squashed
system.switch_cpus.iew.lsq.thread0.invAddrSwpfs            0                       # Number of software prefetches ignored due to an invalid address
system.switch_cpus.iew.lsq.thread0.blockedLoads            0                       # Number of blocked loads due to partial load-store forwarding
system.switch_cpus.iew.lsq.thread0.rescheduledLoads           15                       # Number of loads that were rescheduled
system.switch_cpus.iew.lsq.thread0.cacheBlocked          862                       # Number of times an access to memory failed due to the cache being blocked
system.switch_cpus.iew.iewIdleCycles                0                       # Number of cycles IEW is idle
system.switch_cpus.iew.iewSquashCycles         127898                       # Number of cycles IEW is squashing
system.switch_cpus.iew.iewBlockCycles        13370583                       # Number of cycles IEW is blocking
system.switch_cpus.iew.iewUnblockCycles       1042157                       # Number of cycles IEW is unblocking
system.switch_cpus.iew.iewDispatchedInsts    878054737                       # Number of instructions dispatched to IQ
system.switch_cpus.iew.iewDispSquashedInsts         5923                       # Number of squashed instructions skipped by dispatch
system.switch_cpus.iew.iewDispLoadInsts     242357365                       # Number of dispatched load instructions
system.switch_cpus.iew.iewDispStoreInsts     81140960                       # Number of dispatched store instructions
system.switch_cpus.iew.iewDispNonSpecInsts         3722                       # Number of dispatched non-speculative instructions
system.switch_cpus.iew.iewIQFullEvents          37293                       # Number of times the IQ has become full, causing a stall
system.switch_cpus.iew.iewLSQFullEvents         84365                       # Number of times the LSQ has become full, causing a stall
system.switch_cpus.iew.memOrderViolationEvents        12228                       # Number of memory order violations
system.switch_cpus.iew.predictedTakenIncorrect        10277                       # Number of branches that were predicted taken incorrectly
system.switch_cpus.iew.predictedNotTakenIncorrect         4185                       # Number of branches that were predicted not taken incorrectly
system.switch_cpus.iew.branchMispredicts        14462                       # Number of branch mispredicts detected at execute
system.switch_cpus.iew.iewExecutedInsts     849261698                       # Number of executed instructions
system.switch_cpus.iew.iewExecLoadInsts     242281787                       # Number of load instructions executed
system.switch_cpus.iew.iewExecSquashedInsts        43343                       # Number of squashed instructions skipped in execute
system.switch_cpus.iew.exec_swp                     0                       # number of swp insts executed
system.switch_cpus.iew.exec_nop              28337759                       # number of nop insts executed
system.switch_cpus.iew.exec_refs            323374171                       # number of memory reference insts executed
system.switch_cpus.iew.exec_branches         28892254                       # Number of branches executed
system.switch_cpus.iew.exec_stores           81092384                       # Number of stores executed
system.switch_cpus.iew.exec_rate             2.295830                       # Inst execution rate
system.switch_cpus.iew.wb_sent              849235072                       # cumulative count of insts sent to commit
system.switch_cpus.iew.wb_count             849212362                       # cumulative count of insts written-back
system.switch_cpus.iew.wb_producers         723366829                       # num instructions producing a value
system.switch_cpus.iew.wb_consumers         816043009                       # num instructions consuming a value
system.switch_cpus.iew.wb_penalized                 0                       # number of instrctions required to write to 'other' IQ
system.switch_cpus.iew.wb_rate               2.295696                       # insts written-back per cycle
system.switch_cpus.iew.wb_fanout             0.886432                       # average fanout of values written-back
system.switch_cpus.iew.wb_penalized_rate            0                       # fraction of instructions written-back that wrote to 'other' IQ
system.switch_cpus.commit.commitSquashedInsts       876645                       # The number of squashed insts skipped by commit
system.switch_cpus.commit.commitNonSpecStalls         6762                       # The number of times commit has been forced to stall to communicate backwards
system.switch_cpus.commit.branchMispredicts        13392                       # The number of times a branch was mispredicted
system.switch_cpus.commit.committed_per_cycle::samples    337824424                       # Number of insts commited each cycle
system.switch_cpus.commit.committed_per_cycle::mean     2.596292                       # Number of insts commited each cycle
system.switch_cpus.commit.committed_per_cycle::stdev     3.282042                       # Number of insts commited each cycle
system.switch_cpus.commit.committed_per_cycle::underflows            0      0.00%      0.00% # Number of insts commited each cycle
system.switch_cpus.commit.committed_per_cycle::0    132641007     39.26%     39.26% # Number of insts commited each cycle
system.switch_cpus.commit.committed_per_cycle::1     87586130     25.93%     65.19% # Number of insts commited each cycle
system.switch_cpus.commit.committed_per_cycle::2     11679506      3.46%     68.65% # Number of insts commited each cycle
system.switch_cpus.commit.committed_per_cycle::3      5930178      1.76%     70.40% # Number of insts commited each cycle
system.switch_cpus.commit.committed_per_cycle::4      5687414      1.68%     72.09% # Number of insts commited each cycle
system.switch_cpus.commit.committed_per_cycle::5      3769543      1.12%     73.20% # Number of insts commited each cycle
system.switch_cpus.commit.committed_per_cycle::6      5799031      1.72%     74.92% # Number of insts commited each cycle
system.switch_cpus.commit.committed_per_cycle::7      5889471      1.74%     76.66% # Number of insts commited each cycle
system.switch_cpus.commit.committed_per_cycle::8     78842144     23.34%    100.00% # Number of insts commited each cycle
system.switch_cpus.commit.committed_per_cycle::overflows            0      0.00%    100.00% # Number of insts commited each cycle
system.switch_cpus.commit.committed_per_cycle::min_value            0                       # Number of insts commited each cycle
system.switch_cpus.commit.committed_per_cycle::max_value            8                       # Number of insts commited each cycle
system.switch_cpus.commit.committed_per_cycle::total    337824424                       # Number of insts commited each cycle
system.switch_cpus.commit.committedInsts    877090682                       # Number of instructions committed
system.switch_cpus.commit.committedOps      877090682                       # Number of ops (including micro ops) committed
system.switch_cpus.commit.swp_count                 0                       # Number of s/w prefetches committed
system.switch_cpus.commit.refs              323097447                       # Number of memory references committed
system.switch_cpus.commit.loads             242050532                       # Number of loads committed
system.switch_cpus.commit.membars                3127                       # Number of memory barriers committed
system.switch_cpus.commit.branches           28869599                       # Number of branches committed
system.switch_cpus.commit.fp_insts          262150420                       # Number of committed floating point instructions.
system.switch_cpus.commit.int_insts         689356808                       # Number of committed integer instructions.
system.switch_cpus.commit.function_calls      9447851                       # Number of function calls committed.
system.switch_cpus.commit.bw_lim_events      78842144                       # number cycles where commit BW limit reached
system.switch_cpus.commit.bw_limited                0                       # number of insts not committed due to BW limits
system.switch_cpus.rob.rob_reads           1136895527                       # The number of ROB reads
system.switch_cpus.rob.rob_writes          1756062874                       # The number of ROB writes
system.switch_cpus.timesIdled                  489555                       # Number of times that the entire CPU went into an idle state and unscheduled itself
system.switch_cpus.idleCycles                31962609                       # Total number of cycles that the CPU has spent unscheduled due to idling
system.switch_cpus.committedInsts           848757450                       # Number of Instructions Simulated
system.switch_cpus.committedOps             848757450                       # Number of Ops (including micro ops) Simulated
system.switch_cpus.committedInsts_total     848757450                       # Number of Instructions Simulated
system.switch_cpus.cpi                       0.435831                       # CPI: Cycles Per Instruction
system.switch_cpus.cpi_total                 0.435831                       # CPI: Total CPI of All Threads
system.switch_cpus.ipc                       2.294467                       # IPC: Instructions Per Cycle
system.switch_cpus.ipc_total                 2.294467                       # IPC: Total IPC of All Threads
system.switch_cpus.int_regfile_reads        949652676                       # number of integer regfile reads
system.switch_cpus.int_regfile_writes       502208137                       # number of integer regfile writes
system.switch_cpus.fp_regfile_reads         277934127                       # number of floating regfile reads
system.switch_cpus.fp_regfile_writes        246487965                       # number of floating regfile writes
system.switch_cpus.misc_regfile_reads         8396474                       # number of misc regfile reads
system.switch_cpus.misc_regfile_writes           6255                       # number of misc regfile writes
system.l2.tags.replacements                    485094                       # number of replacements
system.l2.tags.tagsinuse                  8024.086398                       # Cycle average of tags in use
system.l2.tags.total_refs                      236284                       # Total number of references to valid blocks.
system.l2.tags.sampled_refs                    493262                       # Sample count of references to valid blocks.
system.l2.tags.avg_refs                      0.479023                       # Average number of references to valid blocks.
system.l2.tags.warmup_cycle                         0                       # Cycle when the warmup percentage was hit.
system.l2.tags.occ_blocks::writebacks     5549.896458                       # Average occupied blocks per requestor
system.l2.tags.occ_blocks::switch_cpus.inst     7.654258                       # Average occupied blocks per requestor
system.l2.tags.occ_blocks::switch_cpus.data  2465.543108                       # Average occupied blocks per requestor
system.l2.tags.occ_blocks::cpu.inst          0.788372                       # Average occupied blocks per requestor
system.l2.tags.occ_blocks::cpu.data          0.204200                       # Average occupied blocks per requestor
system.l2.tags.occ_percent::writebacks       0.677478                       # Average percentage of cache occupancy
system.l2.tags.occ_percent::switch_cpus.inst     0.000934                       # Average percentage of cache occupancy
system.l2.tags.occ_percent::switch_cpus.data     0.300970                       # Average percentage of cache occupancy
system.l2.tags.occ_percent::cpu.inst         0.000096                       # Average percentage of cache occupancy
system.l2.tags.occ_percent::cpu.data         0.000025                       # Average percentage of cache occupancy
system.l2.tags.occ_percent::total            0.979503                       # Average percentage of cache occupancy
system.l2.ReadReq_hits::switch_cpus.inst           74                       # number of ReadReq hits
system.l2.ReadReq_hits::switch_cpus.data       150406                       # number of ReadReq hits
system.l2.ReadReq_hits::total                  150480                       # number of ReadReq hits
system.l2.Writeback_hits::writebacks           331796                       # number of Writeback hits
system.l2.Writeback_hits::total                331796                       # number of Writeback hits
system.l2.ReadExReq_hits::switch_cpus.data        53868                       # number of ReadExReq hits
system.l2.ReadExReq_hits::total                 53868                       # number of ReadExReq hits
system.l2.demand_hits::switch_cpus.inst            74                       # number of demand (read+write) hits
system.l2.demand_hits::switch_cpus.data        204274                       # number of demand (read+write) hits
system.l2.demand_hits::total                   204348                       # number of demand (read+write) hits
system.l2.overall_hits::switch_cpus.inst           74                       # number of overall hits
system.l2.overall_hits::switch_cpus.data       204274                       # number of overall hits
system.l2.overall_hits::total                  204348                       # number of overall hits
system.l2.ReadReq_misses::switch_cpus.inst          978                       # number of ReadReq misses
system.l2.ReadReq_misses::switch_cpus.data       246037                       # number of ReadReq misses
system.l2.ReadReq_misses::total                247015                       # number of ReadReq misses
system.l2.ReadExReq_misses::switch_cpus.data       245987                       # number of ReadExReq misses
system.l2.ReadExReq_misses::total              245987                       # number of ReadExReq misses
system.l2.demand_misses::switch_cpus.inst          978                       # number of demand (read+write) misses
system.l2.demand_misses::switch_cpus.data       492024                       # number of demand (read+write) misses
system.l2.demand_misses::total                 493002                       # number of demand (read+write) misses
system.l2.overall_misses::switch_cpus.inst          978                       # number of overall misses
system.l2.overall_misses::switch_cpus.data       492024                       # number of overall misses
system.l2.overall_misses::total                493002                       # number of overall misses
system.l2.ReadReq_miss_latency::switch_cpus.inst     66070750                       # number of ReadReq miss cycles
system.l2.ReadReq_miss_latency::switch_cpus.data  15043236250                       # number of ReadReq miss cycles
system.l2.ReadReq_miss_latency::total     15109307000                       # number of ReadReq miss cycles
system.l2.ReadExReq_miss_latency::switch_cpus.data  15348341500                       # number of ReadExReq miss cycles
system.l2.ReadExReq_miss_latency::total   15348341500                       # number of ReadExReq miss cycles
system.l2.demand_miss_latency::switch_cpus.inst     66070750                       # number of demand (read+write) miss cycles
system.l2.demand_miss_latency::switch_cpus.data  30391577750                       # number of demand (read+write) miss cycles
system.l2.demand_miss_latency::total      30457648500                       # number of demand (read+write) miss cycles
system.l2.overall_miss_latency::switch_cpus.inst     66070750                       # number of overall miss cycles
system.l2.overall_miss_latency::switch_cpus.data  30391577750                       # number of overall miss cycles
system.l2.overall_miss_latency::total     30457648500                       # number of overall miss cycles
system.l2.ReadReq_accesses::switch_cpus.inst         1052                       # number of ReadReq accesses(hits+misses)
system.l2.ReadReq_accesses::switch_cpus.data       396443                       # number of ReadReq accesses(hits+misses)
system.l2.ReadReq_accesses::total              397495                       # number of ReadReq accesses(hits+misses)
system.l2.Writeback_accesses::writebacks       331796                       # number of Writeback accesses(hits+misses)
system.l2.Writeback_accesses::total            331796                       # number of Writeback accesses(hits+misses)
system.l2.ReadExReq_accesses::switch_cpus.data       299855                       # number of ReadExReq accesses(hits+misses)
system.l2.ReadExReq_accesses::total            299855                       # number of ReadExReq accesses(hits+misses)
system.l2.demand_accesses::switch_cpus.inst         1052                       # number of demand (read+write) accesses
[...]
system.cpu.icache.overall_mshr_hits::total          413                       # number of overall MSHR hits
system.cpu.icache.ReadReq_mshr_misses::switch_cpus.inst         1052                       # number of ReadReq MSHR misses
system.cpu.icache.ReadReq_mshr_misses::total         1052                       # number of ReadReq MSHR misses
system.cpu.icache.demand_mshr_misses::switch_cpus.inst         1052                       # number of demand (read+write) MSHR misses
system.cpu.icache.demand_mshr_misses::total         1052                       # number of demand (read+write) MSHR misses
system.cpu.icache.overall_mshr_misses::switch_cpus.inst         1052                       # number of overall MSHR misses
system.cpu.icache.overall_mshr_misses::total         1052                       # number of overall MSHR misses
system.cpu.icache.ReadReq_mshr_miss_latency::switch_cpus.inst     67873250                       # number of ReadReq MSHR miss cycles
system.cpu.icache.ReadReq_mshr_miss_latency::total     67873250                       # number of ReadReq MSHR miss cycles
system.cpu.icache.demand_mshr_miss_latency::switch_cpus.inst     67873250                       # number of demand (read+write) MSHR miss cycles
system.cpu.icache.demand_mshr_miss_latency::total     67873250                       # number of demand (read+write) MSHR miss cycles
system.cpu.icache.overall_mshr_miss_latency::switch_cpus.inst     67873250                       # number of overall MSHR miss cycles
system.cpu.icache.overall_mshr_miss_latency::total     67873250                       # number of overall MSHR miss cycles
system.cpu.icache.ReadReq_mshr_miss_rate::switch_cpus.inst     0.000014                       # mshr miss rate for ReadReq accesses
system.cpu.icache.ReadReq_mshr_miss_rate::total     0.000014                       # mshr miss rate for ReadReq accesses
system.cpu.icache.demand_mshr_miss_rate::switch_cpus.inst     0.000014                       # mshr miss rate for demand accesses
system.cpu.icache.demand_mshr_miss_rate::total     0.000014                       # mshr miss rate for demand accesses
system.cpu.icache.overall_mshr_miss_rate::switch_cpus.inst     0.000014                       # mshr miss rate for overall accesses
system.cpu.icache.overall_mshr_miss_rate::total     0.000014                       # mshr miss rate for overall accesses
system.cpu.icache.ReadReq_avg_mshr_miss_latency::switch_cpus.inst 64518.298479                       # average ReadReq mshr miss latency
system.cpu.icache.ReadReq_avg_mshr_miss_latency::total 64518.298479                       # average ReadReq mshr miss latency
system.cpu.icache.demand_avg_mshr_miss_latency::switch_cpus.inst 64518.298479                       # average overall mshr miss latency
system.cpu.icache.demand_avg_mshr_miss_latency::total 64518.298479                       # average overall mshr miss latency
system.cpu.icache.overall_avg_mshr_miss_latency::switch_cpus.inst 64518.298479                       # average overall mshr miss latency
system.cpu.icache.overall_avg_mshr_miss_latency::total 64518.298479                       # average overall mshr miss latency
system.cpu.icache.no_allocate_misses                0                       # Number of misses that were no-allocate
system.cpu.dcache.tags.replacements            695947                       # number of replacements
system.cpu.dcache.tags.tagsinuse           428.884578                       # Cycle average of tags in use
system.cpu.dcache.tags.total_refs           288234166                       # Total number of references to valid blocks.
system.cpu.dcache.tags.sampled_refs            696376                       # Sample count of references to valid blocks.
system.cpu.dcache.tags.avg_refs            413.905944                       # Average number of references to valid blocks.
system.cpu.dcache.tags.warmup_cycle                 0                       # Cycle when the warmup percentage was hit.
system.cpu.dcache.tags.occ_blocks::switch_cpus.data   428.868362                       # Average occupied blocks per requestor
system.cpu.dcache.tags.occ_blocks::cpu.data     0.016216                       # Average occupied blocks per requestor
system.cpu.dcache.tags.occ_percent::switch_cpus.data     0.837634                       # Average percentage of cache occupancy
system.cpu.dcache.tags.occ_percent::cpu.data     0.000032                       # Average percentage of cache occupancy
system.cpu.dcache.tags.occ_percent::total     0.837665                       # Average percentage of cache occupancy
system.cpu.dcache.ReadReq_hits::switch_cpus.data    208237904                       # number of ReadReq hits
system.cpu.dcache.ReadReq_hits::total       208237904                       # number of ReadReq hits
system.cpu.dcache.WriteReq_hits::switch_cpus.data     79991048                       # number of WriteReq hits
system.cpu.dcache.WriteReq_hits::total       79991048                       # number of WriteReq hits
system.cpu.dcache.LoadLockedReq_hits::switch_cpus.data         1586                       # number of LoadLockedReq hits
system.cpu.dcache.LoadLockedReq_hits::total         1586                       # number of LoadLockedReq hits
system.cpu.dcache.StoreCondReq_hits::switch_cpus.data         3127                       # number of StoreCondReq hits
system.cpu.dcache.StoreCondReq_hits::total         3127                       # number of StoreCondReq hits
system.cpu.dcache.demand_hits::switch_cpus.data    288228952                       # number of demand (read+write) hits
system.cpu.dcache.demand_hits::total        288228952                       # number of demand (read+write) hits
system.cpu.dcache.overall_hits::switch_cpus.data    288228952                       # number of overall hits
system.cpu.dcache.overall_hits::total       288228952                       # number of overall hits
system.cpu.dcache.ReadReq_misses::switch_cpus.data      1341528                       # number of ReadReq misses
system.cpu.dcache.ReadReq_misses::total       1341528                       # number of ReadReq misses
system.cpu.dcache.WriteReq_misses::switch_cpus.data      1052740                       # number of WriteReq misses
system.cpu.dcache.WriteReq_misses::total      1052740                       # number of WriteReq misses
system.cpu.dcache.LoadLockedReq_misses::switch_cpus.data         1543                       # number of LoadLockedReq misses
system.cpu.dcache.LoadLockedReq_misses::total         1543                       # number of LoadLockedReq misses
system.cpu.dcache.demand_misses::switch_cpus.data      2394268                       # number of demand (read+write) misses
system.cpu.dcache.demand_misses::total        2394268                       # number of demand (read+write) misses
system.cpu.dcache.overall_misses::switch_cpus.data      2394268                       # number of overall misses
system.cpu.dcache.overall_misses::total       2394268                       # number of overall misses
system.cpu.dcache.ReadReq_miss_latency::switch_cpus.data  57522316500                       # number of ReadReq miss cycles
system.cpu.dcache.ReadReq_miss_latency::total  57522316500                       # number of ReadReq miss cycles
system.cpu.dcache.WriteReq_miss_latency::switch_cpus.data  47135156985                       # number of WriteReq miss cycles
system.cpu.dcache.WriteReq_miss_latency::total  47135156985                       # number of WriteReq miss cycles
system.cpu.dcache.LoadLockedReq_miss_latency::switch_cpus.data     21161000                       # number of LoadLockedReq miss cycles
system.cpu.dcache.LoadLockedReq_miss_latency::total     21161000                       # number of LoadLockedReq miss cycles
system.cpu.dcache.demand_miss_latency::switch_cpus.data 104657473485                       # number of demand (read+write) miss cycles
system.cpu.dcache.demand_miss_latency::total 104657473485                       # number of demand (read+write) miss cycles
system.cpu.dcache.overall_miss_latency::switch_cpus.data 104657473485                       # number of overall miss cycles
system.cpu.dcache.overall_miss_latency::total 104657473485                       # number of overall miss cycles
system.cpu.dcache.ReadReq_accesses::switch_cpus.data    209579432                       # number of ReadReq accesses(hits+misses)
system.cpu.dcache.ReadReq_accesses::total    209579432                       # number of ReadReq accesses(hits+misses)
system.cpu.dcache.WriteReq_accesses::switch_cpus.data     81043788                       # number of WriteReq accesses(hits+misses)
system.cpu.dcache.WriteReq_accesses::total     81043788                       # number of WriteReq accesses(hits+misses)
system.cpu.dcache.LoadLockedReq_accesses::switch_cpus.data         3129                       # number of LoadLockedReq accesses(hits+misses)
system.cpu.dcache.LoadLockedReq_accesses::total         3129                       # number of LoadLockedReq accesses(hits+misses)
system.cpu.dcache.StoreCondReq_accesses::switch_cpus.data         3127                       # number of StoreCondReq accesses(hits+misses)
system.cpu.dcache.StoreCondReq_accesses::total         3127                       # number of StoreCondReq accesses(hits+misses)
system.cpu.dcache.demand_accesses::switch_cpus.data    290623220                       # number of demand (read+write) accesses
system.cpu.dcache.demand_accesses::total    290623220                       # number of demand (read+write) accesses
system.cpu.dcache.overall_accesses::switch_cpus.data    290623220                       # number of overall (read+write) accesses
system.cpu.dcache.overall_accesses::total    290623220                       # number of overall (read+write) accesses
system.cpu.dcache.ReadReq_miss_rate::switch_cpus.data     0.006401                       # miss rate for ReadReq accesses
system.cpu.dcache.ReadReq_miss_rate::total     0.006401                       # miss rate for ReadReq accesses
system.cpu.dcache.WriteReq_miss_rate::switch_cpus.data     0.012990                       # miss rate for WriteReq accesses
system.cpu.dcache.WriteReq_miss_rate::total     0.012990                       # miss rate for WriteReq accesses
system.cpu.dcache.LoadLockedReq_miss_rate::switch_cpus.data     0.493129                       # miss rate for LoadLockedReq accesses
system.cpu.dcache.LoadLockedReq_miss_rate::total     0.493129                       # miss rate for LoadLockedReq accesses
system.cpu.dcache.demand_miss_rate::switch_cpus.data     0.008238                       # miss rate for demand accesses
system.cpu.dcache.demand_miss_rate::total     0.008238                       # miss rate for demand accesses
system.cpu.dcache.overall_miss_rate::switch_cpus.data     0.008238                       # miss rate for overall accesses
system.cpu.dcache.overall_miss_rate::total     0.008238                       # miss rate for overall accesses
system.cpu.dcache.ReadReq_avg_miss_latency::switch_cpus.data 42878.207909                       # average ReadReq miss latency
system.cpu.dcache.ReadReq_avg_miss_latency::total 42878.207909                       # average ReadReq miss latency
system.cpu.dcache.WriteReq_avg_miss_latency::switch_cpus.data 44773.787436                       # average WriteReq miss latency
system.cpu.dcache.WriteReq_avg_miss_latency::total 44773.787436                       # average WriteReq miss latency
system.cpu.dcache.LoadLockedReq_avg_miss_latency::switch_cpus.data 13714.193130                       # average LoadLockedReq miss latency
system.cpu.dcache.LoadLockedReq_avg_miss_latency::total 13714.193130                       # average LoadLockedReq miss latency
system.cpu.dcache.demand_avg_miss_latency::switch_cpus.data 43711.678678                       # average overall miss latency
system.cpu.dcache.demand_avg_miss_latency::total 43711.678678                       # average overall miss latency
system.cpu.dcache.overall_avg_miss_latency::switch_cpus.data 43711.678678                       # average overall miss latency
system.cpu.dcache.overall_avg_miss_latency::total 43711.678678                       # average overall miss latency
system.cpu.dcache.blocked_cycles::no_mshrs         6440                       # number of cycles access was blocked
system.cpu.dcache.blocked_cycles::no_targets            0                       # number of cycles access was blocked
system.cpu.dcache.blocked::no_mshrs               186                       # number of cycles access was blocked
system.cpu.dcache.blocked::no_targets               0                       # number of cycles access was blocked
system.cpu.dcache.avg_blocked_cycles::no_mshrs    34.623656                       # average number of cycles each access was blocked
system.cpu.dcache.avg_blocked_cycles::no_targets          nan                       # average number of cycles each access was blocked
system.cpu.dcache.fast_writes                       0                       # number of fast writes performed
system.cpu.dcache.cache_copies                      0                       # number of cache copies performed
system.cpu.dcache.writebacks::writebacks       331796                       # number of writebacks
system.cpu.dcache.writebacks::total            331796                       # number of writebacks
system.cpu.dcache.ReadReq_mshr_hits::switch_cpus.data       945087                       # number of ReadReq MSHR hits
system.cpu.dcache.ReadReq_mshr_hits::total       945087                       # number of ReadReq MSHR hits
system.cpu.dcache.WriteReq_mshr_hits::switch_cpus.data       752885                       # number of WriteReq MSHR hits
system.cpu.dcache.WriteReq_mshr_hits::total       752885                       # number of WriteReq MSHR hits
system.cpu.dcache.LoadLockedReq_mshr_hits::switch_cpus.data         1541                       # number of LoadLockedReq MSHR hits
system.cpu.dcache.LoadLockedReq_mshr_hits::total         1541                       # number of LoadLockedReq MSHR hits
system.cpu.dcache.demand_mshr_hits::switch_cpus.data      1697972                       # number of demand (read+write) MSHR hits
system.cpu.dcache.demand_mshr_hits::total      1697972                       # number of demand (read+write) MSHR hits
system.cpu.dcache.overall_mshr_hits::switch_cpus.data      1697972                       # number of overall MSHR hits
system.cpu.dcache.overall_mshr_hits::total      1697972                       # number of overall MSHR hits
system.cpu.dcache.ReadReq_mshr_misses::switch_cpus.data       396441                       # number of ReadReq MSHR misses
system.cpu.dcache.ReadReq_mshr_misses::total       396441                       # number of ReadReq MSHR misses
system.cpu.dcache.WriteReq_mshr_misses::switch_cpus.data       299855                       # number of WriteReq MSHR misses
system.cpu.dcache.WriteReq_mshr_misses::total       299855                       # number of WriteReq MSHR misses
system.cpu.dcache.LoadLockedReq_mshr_misses::switch_cpus.data            2                       # number of LoadLockedReq MSHR misses
system.cpu.dcache.LoadLockedReq_mshr_misses::total            2                       # number of LoadLockedReq MSHR misses
system.cpu.dcache.demand_mshr_misses::switch_cpus.data       696296                       # number of demand (read+write) MSHR misses
system.cpu.dcache.demand_mshr_misses::total       696296                       # number of demand (read+write) MSHR misses
system.cpu.dcache.overall_mshr_misses::switch_cpus.data       696296                       # number of overall MSHR misses
system.cpu.dcache.overall_mshr_misses::total       696296                       # number of overall MSHR misses
system.cpu.dcache.ReadReq_mshr_miss_latency::switch_cpus.data  16948726250                       # number of ReadReq MSHR miss cycles
system.cpu.dcache.ReadReq_mshr_miss_latency::total  16948726250                       # number of ReadReq MSHR miss cycles
system.cpu.dcache.WriteReq_mshr_miss_latency::switch_cpus.data  16192111500                       # number of WriteReq MSHR miss cycles
system.cpu.dcache.WriteReq_mshr_miss_latency::total  16192111500                       # number of WriteReq MSHR miss cycles
system.cpu.dcache.LoadLockedReq_mshr_miss_latency::switch_cpus.data       122500                       # number of LoadLockedReq MSHR miss cycles
system.cpu.dcache.LoadLockedReq_mshr_miss_latency::total       122500                       # number of LoadLockedReq MSHR miss cycles
system.cpu.dcache.demand_mshr_miss_latency::switch_cpus.data  33140837750                       # number of demand (read+write) MSHR miss cycles
system.cpu.dcache.demand_mshr_miss_latency::total  33140837750                       # number of demand (read+write) MSHR miss cycles
system.cpu.dcache.overall_mshr_miss_latency::switch_cpus.data  33140837750                       # number of overall MSHR miss cycles
system.cpu.dcache.overall_mshr_miss_latency::total  33140837750                       # number of overall MSHR miss cycles
system.cpu.dcache.ReadReq_mshr_miss_rate::switch_cpus.data     0.001892                       # mshr miss rate for ReadReq accesses
system.cpu.dcache.ReadReq_mshr_miss_rate::total     0.001892                       # mshr miss rate for ReadReq accesses
system.cpu.dcache.WriteReq_mshr_miss_rate::switch_cpus.data     0.003700                       # mshr miss rate for WriteReq accesses
system.cpu.dcache.WriteReq_mshr_miss_rate::total     0.003700                       # mshr miss rate for WriteReq accesses
system.cpu.dcache.LoadLockedReq_mshr_miss_rate::switch_cpus.data     0.000639                       # mshr miss rate for LoadLockedReq accesses
system.cpu.dcache.LoadLockedReq_mshr_miss_rate::total     0.000639                       # mshr miss rate for LoadLockedReq accesses
system.cpu.dcache.demand_mshr_miss_rate::switch_cpus.data     0.002396                       # mshr miss rate for demand accesses
system.cpu.dcache.demand_mshr_miss_rate::total     0.002396                       # mshr miss rate for demand accesses
system.cpu.dcache.overall_mshr_miss_rate::switch_cpus.data     0.002396                       # mshr miss rate for overall accesses
system.cpu.dcache.overall_mshr_miss_rate::total     0.002396                       # mshr miss rate for overall accesses
system.cpu.dcache.ReadReq_avg_mshr_miss_latency::switch_cpus.data 42752.203354                       # average ReadReq mshr miss latency
system.cpu.dcache.ReadReq_avg_mshr_miss_latency::total 42752.203354                       # average ReadReq mshr miss latency
system.cpu.dcache.WriteReq_avg_mshr_miss_latency::switch_cpus.data 53999.804906                       # average WriteReq mshr miss latency
system.cpu.dcache.WriteReq_avg_mshr_miss_latency::total 53999.804906                       # average WriteReq mshr miss latency
system.cpu.dcache.LoadLockedReq_avg_mshr_miss_latency::switch_cpus.data        61250                       # average LoadLockedReq mshr miss latency
system.cpu.dcache.LoadLockedReq_avg_mshr_miss_latency::total        61250                       # average LoadLockedReq mshr miss latency
system.cpu.dcache.demand_avg_mshr_miss_latency::switch_cpus.data 47595.904256                       # average overall mshr miss latency
system.cpu.dcache.demand_avg_mshr_miss_latency::total 47595.904256                       # average overall mshr miss latency
system.cpu.dcache.overall_avg_mshr_miss_latency::switch_cpus.data 47595.904256                       # average overall mshr miss latency
system.cpu.dcache.overall_avg_mshr_miss_latency::total 47595.904256                       # average overall mshr miss latency
system.cpu.dcache.no_allocate_misses                0                       # Number of misses that were no-allocate

---------- End Simulation Statistics   ----------
