
---------- Begin Simulation Statistics ----------
sim_seconds                                  0.184847                       # Number of seconds simulated
sim_ticks                                184847196000                       # Number of ticks simulated
final_tick                               184848906500                       # Number of ticks from beginning of simulation (restored from checkpoints and never reset)
sim_freq                                 1000000000000                       # Frequency of simulated ticks
host_inst_rate                                  57939                       # Simulator instruction rate (inst/s)
host_op_rate                                    57939                       # Simulator op (including micro ops) rate (op/s)
host_tick_rate                               12618125                       # Simulator tick rate (ticks/s)
host_mem_usage                                 750516                       # Number of bytes of host memory used
host_seconds                                 14649.34                       # Real time elapsed on the host
sim_insts                                   848760841                       # Number of instructions simulated
sim_ops                                     848760841                       # Number of ops (including micro ops) simulated
system.physmem.bytes_read::switch_cpus.inst        62592                       # Number of bytes read from this memory
system.physmem.bytes_read::switch_cpus.data     31489472                       # Number of bytes read from this memory
system.physmem.bytes_read::total             31552064                       # Number of bytes read from this memory
system.physmem.bytes_inst_read::switch_cpus.inst        62592                       # Number of instructions bytes read from this memory
system.physmem.bytes_inst_read::total           62592                       # Number of instructions bytes read from this memory
system.physmem.bytes_written::writebacks     15738048                       # Number of bytes written to this memory
system.physmem.bytes_written::total          15738048                       # Number of bytes written to this memory
system.physmem.num_reads::switch_cpus.inst          978                       # Number of read requests responded to by this memory
system.physmem.num_reads::switch_cpus.data       492023                       # Number of read requests responded to by this memory
system.physmem.num_reads::total                493001                       # Number of read requests responded to by this memory
system.physmem.num_writes::writebacks          245907                       # Number of write requests responded to by this memory
system.physmem.num_writes::total               245907                       # Number of write requests responded to by this memory
system.physmem.bw_read::switch_cpus.inst       338615                       # Total read bandwidth from this memory (bytes/s)
system.physmem.bw_read::switch_cpus.data    170354069                       # Total read bandwidth from this memory (bytes/s)
system.physmem.bw_read::total               170692684                       # Total read bandwidth from this memory (bytes/s)
system.physmem.bw_inst_read::switch_cpus.inst       338615                       # Instruction read bandwidth from this memory (bytes/s)
system.physmem.bw_inst_read::total             338615                       # Instruction read bandwidth from this memory (bytes/s)
system.physmem.bw_write::writebacks          85140853                       # Write bandwidth from this memory (bytes/s)
system.physmem.bw_write::total               85140853                       # Write bandwidth from this memory (bytes/s)
system.physmem.bw_total::writebacks          85140853                       # Total bandwidth to/from this memory (bytes/s)
system.physmem.bw_total::switch_cpus.inst       338615                       # Total bandwidth to/from this memory (bytes/s)
system.physmem.bw_total::switch_cpus.data    170354069                       # Total bandwidth to/from this memory (bytes/s)
system.physmem.bw_total::total              255833537                       # Total bandwidth to/from this memory (bytes/s)
system.physmem.readReqs                        493002                       # Total number of read requests seen
system.physmem.writeReqs                       245907                       # Total number of write requests seen
system.physmem.cpureqs                         738909                       # Reqs generatd by CPU via cache - shady
system.physmem.bytesRead                     31552064                       # Total number of bytes read from memory
system.physmem.bytesWritten                  15738048                       # Total number of bytes written to memory
system.physmem.bytesConsumedRd               31552064                       # bytesRead derated as per pkt->getSize()
system.physmem.bytesConsumedWr               15738048                       # bytesWritten derated as per pkt->getSize()
system.physmem.servicedByWrQ                       14                       # Number of read reqs serviced by write Q
system.physmem.neitherReadNorWrite                  0                       # Reqs where no action is needed
system.physmem.perBankRdReqs::0                 30901                       # Track reads on a per bank basis
system.physmem.perBankRdReqs::1                 30792                       # Track reads on a per bank basis
system.physmem.perBankRdReqs::2                 30865                       # Track reads on a per bank basis
system.physmem.perBankRdReqs::3                 30735                       # Track reads on a per bank basis
system.physmem.perBankRdReqs::4                 30763                       # Track reads on a per bank basis
system.physmem.perBankRdReqs::5                 30769                       # Track reads on a per bank basis
system.physmem.perBankRdReqs::6                 30767                       # Track reads on a per bank basis
system.physmem.perBankRdReqs::7                 30810                       # Track reads on a per bank basis
system.physmem.perBankRdReqs::8                 30747                       # Track reads on a per bank basis
system.physmem.perBankRdReqs::9                 30760                       # Track reads on a per bank basis
system.physmem.perBankRdReqs::10                30765                       # Track reads on a per bank basis
system.physmem.perBankRdReqs::11                30882                       # Track reads on a per bank basis
system.physmem.perBankRdReqs::12                30910                       # Track reads on a per bank basis
system.physmem.perBankRdReqs::13                30845                       # Track reads on a per bank basis
system.physmem.perBankRdReqs::14                30773                       # Track reads on a per bank basis
system.physmem.perBankRdReqs::15                30904                       # Track reads on a per bank basis
system.physmem.perBankWrReqs::0                 15361                       # Track writes on a per bank basis
system.physmem.perBankWrReqs::1                 15361                       # Track writes on a per bank basis
system.physmem.perBankWrReqs::2                 15360                       # Track writes on a per bank basis
system.physmem.perBankWrReqs::3                 15360                       # Track writes on a per bank basis
system.physmem.perBankWrReqs::4                 15368                       # Track writes on a per bank basis
system.physmem.perBankWrReqs::5                 15406                       # Track writes on a per bank basis
system.physmem.perBankWrReqs::6                 15360                       # Track writes on a per bank basis
system.physmem.perBankWrReqs::7                 15360                       # Track writes on a per bank basis
system.physmem.perBankWrReqs::8                 15360                       # Track writes on a per bank basis
system.physmem.perBankWrReqs::9                 15360                       # Track writes on a per bank basis
system.physmem.perBankWrReqs::10                15361                       # Track writes on a per bank basis
system.physmem.perBankWrReqs::11                15409                       # Track writes on a per bank basis
system.physmem.perBankWrReqs::12                15395                       # Track writes on a per bank basis
system.physmem.perBankWrReqs::13                15360                       # Track writes on a per bank basis
system.physmem.perBankWrReqs::14                15366                       # Track writes on a per bank basis
system.physmem.perBankWrReqs::15                15360                       # Track writes on a per bank basis
system.physmem.numRdRetry                           0                       # Number of times rd buffer was full causing retry
system.physmem.numWrRetry                           0                       # Number of times wr buffer was full causing retry
system.physmem.totGap                    184847166000                       # Total gap between requests
system.physmem.readPktSize::0                       0                       # Categorize read packet sizes
system.physmem.readPktSize::1                       0                       # Categorize read packet sizes
system.physmem.readPktSize::2                       0                       # Categorize read packet sizes
system.physmem.readPktSize::3                       0                       # Categorize read packet sizes
system.physmem.readPktSize::4                       0                       # Categorize read packet sizes
system.physmem.readPktSize::5                       0                       # Categorize read packet sizes
system.physmem.readPktSize::6                  493002                       # Categorize read packet sizes
system.physmem.writePktSize::0                      0                       # Categorize write packet sizes
system.physmem.writePktSize::1                      0                       # Categorize write packet sizes
system.physmem.writePktSize::2                      0                       # Categorize write packet sizes
system.physmem.writePktSize::3                      0                       # Categorize write packet sizes
system.physmem.writePktSize::4                      0                       # Categorize write packet sizes
system.physmem.writePktSize::5                      0                       # Categorize write packet sizes
system.physmem.writePktSize::6                 245907                       # Categorize write packet sizes
system.physmem.rdQLenPdf::0                    492428                       # What read queue length does an incoming req see
system.physmem.rdQLenPdf::1                       425                       # What read queue length does an incoming req see
system.physmem.rdQLenPdf::2                       109                       # What read queue length does an incoming req see
system.physmem.rdQLenPdf::3                        24                       # What read queue length does an incoming req see
system.physmem.rdQLenPdf::4                         2                       # What read queue length does an incoming req see
system.physmem.rdQLenPdf::5                         0                       # What read queue length does an incoming req see
system.physmem.rdQLenPdf::6                         0                       # What read queue length does an incoming req see
system.physmem.rdQLenPdf::7                         0                       # What read queue length does an incoming req see
system.physmem.rdQLenPdf::8                         0                       # What read queue length does an incoming req see
system.physmem.rdQLenPdf::9                         0                       # What read queue length does an incoming req see
system.physmem.rdQLenPdf::10                        0                       # What read queue length does an incoming req see
system.physmem.rdQLenPdf::11                        0                       # What read queue length does an incoming req see
system.physmem.rdQLenPdf::12                        0                       # What read queue length does an incoming req see
system.physmem.rdQLenPdf::13                        0                       # What read queue length does an incoming req see
system.physmem.rdQLenPdf::14                        0                       # What read queue length does an incoming req see
system.physmem.rdQLenPdf::15                        0                       # What read queue length does an incoming req see
system.physmem.rdQLenPdf::16                        0                       # What read queue length does an incoming req see
system.physmem.rdQLenPdf::17                        0                       # What read queue length does an incoming req see
system.physmem.rdQLenPdf::18                        0                       # What read queue length does an incoming req see
system.physmem.rdQLenPdf::19                        0                       # What read queue length does an incoming req see
system.physmem.rdQLenPdf::20                        0                       # What read queue length does an incoming req see
system.physmem.rdQLenPdf::21                        0                       # What read queue length does an incoming req see
system.physmem.rdQLenPdf::22                        0                       # What read queue length does an incoming req see
system.physmem.rdQLenPdf::23                        0                       # What read queue length does an incoming req see
system.physmem.rdQLenPdf::24                        0                       # What read queue length does an incoming req see
system.physmem.rdQLenPdf::25                        0                       # What read queue length does an incoming req see
system.physmem.rdQLenPdf::26                        0                       # What read queue length does an incoming req see
system.physmem.rdQLenPdf::27                        0                       # What read queue length does an incoming req see
system.physmem.rdQLenPdf::28                        0                       # What read queue length does an incoming req see
system.physmem.rdQLenPdf::29                        0                       # What read queue length does an incoming req see
system.physmem.rdQLenPdf::30                        0                       # What read queue length does an incoming req see
system.physmem.rdQLenPdf::31                        0                       # What read queue length does an incoming req see
system.physmem.wrQLenPdf::0                     10684                       # What write queue length does an incoming req see
system.physmem.wrQLenPdf::1                     10692                       # What write queue length does an incoming req see
system.physmem.wrQLenPdf::2                     10692                       # What write queue length does an incoming req see
system.physmem.wrQLenPdf::3                     10692                       # What write queue length does an incoming req see
system.physmem.wrQLenPdf::4                     10692                       # What write queue length does an incoming req see
system.physmem.wrQLenPdf::5                     10692                       # What write queue length does an incoming req see
system.physmem.wrQLenPdf::6                     10692                       # What write queue length does an incoming req see
system.physmem.wrQLenPdf::7                     10692                       # What write queue length does an incoming req see
system.physmem.wrQLenPdf::8                     10692                       # What write queue length does an incoming req see
system.physmem.wrQLenPdf::9                     10692                       # What write queue length does an incoming req see
system.physmem.wrQLenPdf::10                    10692                       # What write queue length does an incoming req see
system.physmem.wrQLenPdf::11                    10692                       # What write queue length does an incoming req see
system.physmem.wrQLenPdf::12                    10692                       # What write queue length does an incoming req see
system.physmem.wrQLenPdf::13                    10692                       # What write queue length does an incoming req see
system.physmem.wrQLenPdf::14                    10691                       # What write queue length does an incoming req see
system.physmem.wrQLenPdf::15                    10691                       # What write queue length does an incoming req see
system.physmem.wrQLenPdf::16                    10691                       # What write queue length does an incoming req see
system.physmem.wrQLenPdf::17                    10691                       # What write queue length does an incoming req see
system.physmem.wrQLenPdf::18                    10691                       # What write queue length does an incoming req see
system.physmem.wrQLenPdf::19                    10691                       # What write queue length does an incoming req see
system.physmem.wrQLenPdf::20                    10691                       # What write queue length does an incoming req see
system.physmem.wrQLenPdf::21                    10691                       # What write queue length does an incoming req see
system.physmem.wrQLenPdf::22                    10691                       # What write queue length does an incoming req see
system.physmem.wrQLenPdf::23                        8                       # What write queue length does an incoming req see
system.physmem.wrQLenPdf::24                        0                       # What write queue length does an incoming req see
system.physmem.wrQLenPdf::25                        0                       # What write queue length does an incoming req see
system.physmem.wrQLenPdf::26                        0                       # What write queue length does an incoming req see
system.physmem.wrQLenPdf::27                        0                       # What write queue length does an incoming req see
system.physmem.wrQLenPdf::28                        0                       # What write queue length does an incoming req see
system.physmem.wrQLenPdf::29                        0                       # What write queue length does an incoming req see
system.physmem.wrQLenPdf::30                        0                       # What write queue length does an incoming req see
system.physmem.wrQLenPdf::31                        0                       # What write queue length does an incoming req see
system.physmem.bytesPerActivate::samples        35025                       # Bytes accessed per row activation
system.physmem.bytesPerActivate::mean     1348.668665                       # Bytes accessed per row activation
system.physmem.bytesPerActivate::gmean     623.820869                       # Bytes accessed per row activation
system.physmem.bytesPerActivate::stdev    1992.706948                       # Bytes accessed per row activation
system.physmem.bytesPerActivate::64-65           4245     12.12%     12.12% # Bytes accessed per row activation
system.physmem.bytesPerActivate::128-129         3573     10.20%     22.32% # Bytes accessed per row activation
system.physmem.bytesPerActivate::192-193          573      1.64%     23.96% # Bytes accessed per row activation
system.physmem.bytesPerActivate::256-257          595      1.70%     25.66% # Bytes accessed per row activation
system.physmem.bytesPerActivate::320-321          554      1.58%     27.24% # Bytes accessed per row activation
system.physmem.bytesPerActivate::384-385          709      2.02%     29.26% # Bytes accessed per row activation
system.physmem.bytesPerActivate::448-449         1504      4.29%     33.56% # Bytes accessed per row activation
system.physmem.bytesPerActivate::512-513         2213      6.32%     39.87% # Bytes accessed per row activation
system.physmem.bytesPerActivate::576-577          625      1.78%     41.66% # Bytes accessed per row activation
system.physmem.bytesPerActivate::640-641          604      1.72%     43.38% # Bytes accessed per row activation
system.physmem.bytesPerActivate::704-705          548      1.56%     44.95% # Bytes accessed per row activation
system.physmem.bytesPerActivate::768-769          694      1.98%     46.93% # Bytes accessed per row activation
system.physmem.bytesPerActivate::832-833          552      1.58%     48.51% # Bytes accessed per row activation
system.physmem.bytesPerActivate::896-897          732      2.09%     50.60% # Bytes accessed per row activation
system.physmem.bytesPerActivate::960-961         3201      9.14%     59.73% # Bytes accessed per row activation
system.physmem.bytesPerActivate::1024-1025         1902      5.43%     65.16% # Bytes accessed per row activation
system.physmem.bytesPerActivate::1088-1089          541      1.54%     66.71% # Bytes accessed per row activation
system.physmem.bytesPerActivate::1152-1153          520      1.48%     68.19% # Bytes accessed per row activation
system.physmem.bytesPerActivate::1216-1217          458      1.31%     69.50% # Bytes accessed per row activation
system.physmem.bytesPerActivate::1280-1281          496      1.42%     70.92% # Bytes accessed per row activation
system.physmem.bytesPerActivate::1344-1345          493      1.41%     72.33% # Bytes accessed per row activation
system.physmem.bytesPerActivate::1408-1409          653      1.86%     74.19% # Bytes accessed per row activation
system.physmem.bytesPerActivate::1472-1473         4608     13.16%     87.35% # Bytes accessed per row activation
system.physmem.bytesPerActivate::1536-1537          122      0.35%     87.69% # Bytes accessed per row activation
system.physmem.bytesPerActivate::1600-1601          102      0.29%     87.99% # Bytes accessed per row activation
system.physmem.bytesPerActivate::1664-1665          107      0.31%     88.29% # Bytes accessed per row activation
system.physmem.bytesPerActivate::1728-1729           72      0.21%     88.50% # Bytes accessed per row activation
system.physmem.bytesPerActivate::1792-1793           79      0.23%     88.72% # Bytes accessed per row activation
system.physmem.bytesPerActivate::1856-1857           53      0.15%     88.87% # Bytes accessed per row activation
system.physmem.bytesPerActivate::1920-1921           64      0.18%     89.06% # Bytes accessed per row activation
system.physmem.bytesPerActivate::1984-1985           72      0.21%     89.26% # Bytes accessed per row activation
system.physmem.bytesPerActivate::2048-2049           85      0.24%     89.50% # Bytes accessed per row activation
system.physmem.bytesPerActivate::2112-2113          105      0.30%     89.80% # Bytes accessed per row activation
system.physmem.bytesPerActivate::2176-2177           44      0.13%     89.93% # Bytes accessed per row activation
system.physmem.bytesPerActivate::2240-2241           39      0.11%     90.04% # Bytes accessed per row activation
system.physmem.bytesPerActivate::2304-2305           40      0.11%     90.16% # Bytes accessed per row activation
system.physmem.bytesPerActivate::2368-2369           52      0.15%     90.30% # Bytes accessed per row activation
system.physmem.bytesPerActivate::2432-2433           30      0.09%     90.39% # Bytes accessed per row activation
system.physmem.bytesPerActivate::2496-2497           24      0.07%     90.46% # Bytes accessed per row activation
system.physmem.bytesPerActivate::2560-2561           34      0.10%     90.56% # Bytes accessed per row activation
system.physmem.bytesPerActivate::2624-2625           24      0.07%     90.62% # Bytes accessed per row activation
system.physmem.bytesPerActivate::2688-2689           22      0.06%     90.69% # Bytes accessed per row activation
system.physmem.bytesPerActivate::2752-2753           31      0.09%     90.78% # Bytes accessed per row activation
system.physmem.bytesPerActivate::2816-2817           27      0.08%     90.85% # Bytes accessed per row activation
system.physmem.bytesPerActivate::2880-2881           36      0.10%     90.96% # Bytes accessed per row activation
system.physmem.bytesPerActivate::2944-2945           46      0.13%     91.09% # Bytes accessed per row activation
system.physmem.bytesPerActivate::3008-3009           17      0.05%     91.13% # Bytes accessed per row activation
system.physmem.bytesPerActivate::3072-3073           14      0.04%     91.17% # Bytes accessed per row activation
system.physmem.bytesPerActivate::3136-3137           11      0.03%     91.21% # Bytes accessed per row activation
system.physmem.bytesPerActivate::3200-3201           20      0.06%     91.26% # Bytes accessed per row activation
system.physmem.bytesPerActivate::3264-3265           19      0.05%     91.32% # Bytes accessed per row activation
system.physmem.bytesPerActivate::3328-3329           19      0.05%     91.37% # Bytes accessed per row activation
system.physmem.bytesPerActivate::3392-3393           10      0.03%     91.40% # Bytes accessed per row activation
system.physmem.bytesPerActivate::3456-3457           17      0.05%     91.45% # Bytes accessed per row activation
system.physmem.bytesPerActivate::3520-3521           16      0.05%     91.49% # Bytes accessed per row activation
system.physmem.bytesPerActivate::3584-3585           19      0.05%     91.55% # Bytes accessed per row activation
system.physmem.bytesPerActivate::3648-3649           11      0.03%     91.58% # Bytes accessed per row activation
system.physmem.bytesPerActivate::3712-3713           19      0.05%     91.63% # Bytes accessed per row activation
system.physmem.bytesPerActivate::3776-3777           10      0.03%     91.66% # Bytes accessed per row activation
system.physmem.bytesPerActivate::3840-3841           18      0.05%     91.71% # Bytes accessed per row activation
system.physmem.bytesPerActivate::3904-3905           10      0.03%     91.74% # Bytes accessed per row activation
system.physmem.bytesPerActivate::3968-3969           12      0.03%     91.78% # Bytes accessed per row activation
system.physmem.bytesPerActivate::4032-4033           36      0.10%     91.88% # Bytes accessed per row activation
system.physmem.bytesPerActivate::4096-4097           25      0.07%     91.95% # Bytes accessed per row activation
system.physmem.bytesPerActivate::4160-4161           35      0.10%     92.05% # Bytes accessed per row activation
system.physmem.bytesPerActivate::4224-4225           10      0.03%     92.08% # Bytes accessed per row activation
system.physmem.bytesPerActivate::4288-4289           23      0.07%     92.15% # Bytes accessed per row activation
system.physmem.bytesPerActivate::4352-4353           11      0.03%     92.18% # Bytes accessed per row activation
system.physmem.bytesPerActivate::4416-4417           15      0.04%     92.22% # Bytes accessed per row activation
system.physmem.bytesPerActivate::4480-4481           17      0.05%     92.27% # Bytes accessed per row activation
system.physmem.bytesPerActivate::4544-4545            8      0.02%     92.29% # Bytes accessed per row activation
system.physmem.bytesPerActivate::4608-4609            9      0.03%     92.32% # Bytes accessed per row activation
system.physmem.bytesPerActivate::4672-4673           13      0.04%     92.35% # Bytes accessed per row activation
system.physmem.bytesPerActivate::4736-4737           16      0.05%     92.40% # Bytes accessed per row activation
system.physmem.bytesPerActivate::4800-4801            6      0.02%     92.42% # Bytes accessed per row activation
system.physmem.bytesPerActivate::4864-4865           14      0.04%     92.46% # Bytes accessed per row activation
system.physmem.bytesPerActivate::4928-4929           14      0.04%     92.50% # Bytes accessed per row activation
system.physmem.bytesPerActivate::4992-4993            6      0.02%     92.51% # Bytes accessed per row activation
system.physmem.bytesPerActivate::5056-5057            7      0.02%     92.53% # Bytes accessed per row activation
system.physmem.bytesPerActivate::5120-5121            6      0.02%     92.55% # Bytes accessed per row activation
system.physmem.bytesPerActivate::5184-5185            3      0.01%     92.56% # Bytes accessed per row activation
system.physmem.bytesPerActivate::5248-5249           10      0.03%     92.59% # Bytes accessed per row activation
system.physmem.bytesPerActivate::5312-5313           12      0.03%     92.62% # Bytes accessed per row activation
system.physmem.bytesPerActivate::5376-5377           12      0.03%     92.66% # Bytes accessed per row activation
system.physmem.bytesPerActivate::5440-5441            5      0.01%     92.67% # Bytes accessed per row activation
system.physmem.bytesPerActivate::5504-5505            4      0.01%     92.68% # Bytes accessed per row activation
system.physmem.bytesPerActivate::5568-5569            6      0.02%     92.70% # Bytes accessed per row activation
system.physmem.bytesPerActivate::5632-5633            6      0.02%     92.72% # Bytes accessed per row activation
system.physmem.bytesPerActivate::5696-5697            2      0.01%     92.72% # Bytes accessed per row activation
system.physmem.bytesPerActivate::5760-5761           11      0.03%     92.75% # Bytes accessed per row activation
system.physmem.bytesPerActivate::5824-5825            8      0.02%     92.78% # Bytes accessed per row activation
system.physmem.bytesPerActivate::5888-5889           10      0.03%     92.81% # Bytes accessed per row activation
system.physmem.bytesPerActivate::5952-5953            7      0.02%     92.83% # Bytes accessed per row activation
system.physmem.bytesPerActivate::6016-6017           17      0.05%     92.87% # Bytes accessed per row activation
system.physmem.bytesPerActivate::6080-6081           27      0.08%     92.95% # Bytes accessed per row activation
system.physmem.bytesPerActivate::6144-6145            9      0.03%     92.98% # Bytes accessed per row activation
system.physmem.bytesPerActivate::6208-6209           20      0.06%     93.03% # Bytes accessed per row activation
system.physmem.bytesPerActivate::6272-6273            9      0.03%     93.06% # Bytes accessed per row activation
system.physmem.bytesPerActivate::6336-6337            7      0.02%     93.08% # Bytes accessed per row activation
system.physmem.bytesPerActivate::6400-6401           12      0.03%     93.11% # Bytes accessed per row activation
system.physmem.bytesPerActivate::6464-6465            9      0.03%     93.14% # Bytes accessed per row activation
system.physmem.bytesPerActivate::6528-6529           11      0.03%     93.17% # Bytes accessed per row activation
system.physmem.bytesPerActivate::6592-6593            8      0.02%     93.19% # Bytes accessed per row activation
system.physmem.bytesPerActivate::6656-6657            5      0.01%     93.21% # Bytes accessed per row activation
system.physmem.bytesPerActivate::6720-6721            4      0.01%     93.22% # Bytes accessed per row activation
system.physmem.bytesPerActivate::6784-6785            6      0.02%     93.24% # Bytes accessed per row activation
system.physmem.bytesPerActivate::6848-6849           10      0.03%     93.26% # Bytes accessed per row activation
system.physmem.bytesPerActivate::6912-6913            5      0.01%     93.28% # Bytes accessed per row activation
system.physmem.bytesPerActivate::6976-6977            6      0.02%     93.30% # Bytes accessed per row activation
system.physmem.bytesPerActivate::7040-7041           16      0.05%     93.34% # Bytes accessed per row activation
system.physmem.bytesPerActivate::7104-7105           10      0.03%     93.37% # Bytes accessed per row activation
system.physmem.bytesPerActivate::7168-7169            9      0.03%     93.40% # Bytes accessed per row activation
system.physmem.bytesPerActivate::7232-7233            6      0.02%     93.41% # Bytes accessed per row activation
system.physmem.bytesPerActivate::7296-7297           14      0.04%     93.45% # Bytes accessed per row activation
system.physmem.bytesPerActivate::7360-7361            6      0.02%     93.47% # Bytes accessed per row activation
system.physmem.bytesPerActivate::7424-7425            7      0.02%     93.49% # Bytes accessed per row activation
system.physmem.bytesPerActivate::7488-7489           13      0.04%     93.53% # Bytes accessed per row activation
system.physmem.bytesPerActivate::7552-7553            9      0.03%     93.55% # Bytes accessed per row activation
system.physmem.bytesPerActivate::7616-7617            9      0.03%     93.58% # Bytes accessed per row activation
system.physmem.bytesPerActivate::7680-7681           10      0.03%     93.61% # Bytes accessed per row activation
system.physmem.bytesPerActivate::7744-7745            5      0.01%     93.62% # Bytes accessed per row activation
system.physmem.bytesPerActivate::7808-7809           15      0.04%     93.66% # Bytes accessed per row activation
system.physmem.bytesPerActivate::7872-7873            7      0.02%     93.68% # Bytes accessed per row activation
system.physmem.bytesPerActivate::7936-7937           12      0.03%     93.72% # Bytes accessed per row activation
system.physmem.bytesPerActivate::8000-8001           13      0.04%     93.76% # Bytes accessed per row activation
system.physmem.bytesPerActivate::8064-8065           15      0.04%     93.80% # Bytes accessed per row activation
system.physmem.bytesPerActivate::8128-8129           40      0.11%     93.91% # Bytes accessed per row activation
system.physmem.bytesPerActivate::8192-8193         2132      6.09%    100.00% # Bytes accessed per row activation
system.physmem.bytesPerActivate::total          35025                       # Bytes accessed per row activation
system.physmem.totQLat                      339721000                       # Total cycles spent in queuing delays
system.physmem.totMemAccLat                9996626000                       # Sum of mem lat for all requests
system.physmem.totBusLat                   2464940000                       # Total cycles spent in databus access
system.physmem.totBankLat                  7191965000                       # Total cycles spent in bank access
system.physmem.avgQLat                         689.11                       # Average queueing delay per request
system.physmem.avgBankLat                    14588.52                       # Average bank access latency per request
system.physmem.avgBusLat                      5000.00                       # Average bus latency per request
system.physmem.avgMemAccLat                  20277.63                       # Average memory access latency
system.physmem.avgRdBW                         170.69                       # Average achieved read bandwidth in MB/s
system.physmem.avgWrBW                          85.14                       # Average achieved write bandwidth in MB/s
system.physmem.avgConsumedRdBW                 170.69                       # Average consumed read bandwidth in MB/s
system.physmem.avgConsumedWrBW                  85.14                       # Average consumed write bandwidth in MB/s
system.physmem.peakBW                        12800.00                       # Theoretical peak bandwidth in MB/s
system.physmem.busUtil                           2.00                       # Data bus utilization in percentage
system.physmem.avgRdQLen                         0.05                       # Average read queue length over time
system.physmem.avgWrQLen                        11.30                       # Average write queue length over time
system.physmem.readRowHits                     471762                       # Number of row buffer hits during reads
system.physmem.writeRowHits                    232094                       # Number of row buffer hits during writes
system.physmem.readRowHitRate                   95.69                       # Row buffer hit rate for reads
system.physmem.writeRowHitRate                  94.38                       # Row buffer hit rate for writes
system.physmem.avgGap                       250162.29                       # Average gap between requests
system.membus.throughput                    255833191                       # Throughput (bytes/s)
system.membus.trans_dist::ReadReq              247015                       # Transaction distribution
system.membus.trans_dist::ReadResp             247013                       # Transaction distribution
system.membus.trans_dist::Writeback            245907                       # Transaction distribution
system.membus.trans_dist::ReadExReq            245987                       # Transaction distribution
system.membus.trans_dist::ReadExResp           245987                       # Transaction distribution
system.membus.pkt_count_system.l2.mem_side      1231909                       # Packet count per connected master and slave (bytes)
system.membus.pkt_count                       1231909                       # Packet count per connected master and slave (bytes)
system.membus.tot_pkt_size_system.l2.mem_side     47290048                       # Cumulative packet size per connected master and slave (bytes)
system.membus.tot_pkt_size                   47290048                       # Cumulative packet size per connected master and slave (bytes)
system.membus.data_through_bus               47290048                       # Total data (bytes)
system.membus.snoop_data_through_bus                0                       # Total snoop data (bytes)
system.membus.reqLayer0.occupancy          1353082500                       # Layer occupancy (ticks)
system.membus.reqLayer0.utilization               0.7                       # Layer utilization (%)
system.membus.respLayer1.occupancy         2338608500                       # Layer occupancy (ticks)
system.membus.respLayer1.utilization              1.3                       # Layer utilization (%)
system.switch_cpus.branchPred.lookups        28915327                       # Number of BP lookups
system.switch_cpus.branchPred.condPredicted      9999709                       # Number of conditional branches predicted
system.switch_cpus.branchPred.condIncorrect        13848                       # Number of conditional branches incorrect
system.switch_cpus.branchPred.BTBLookups     18370647                       # Number of BTB lookups
system.switch_cpus.branchPred.BTBHits        18366358                       # Number of BTB hits
system.switch_cpus.branchPred.BTBCorrect            0                       # Number of correct BTB predictions (this stat may not work properly.
system.switch_cpus.branchPred.BTBHitPct     99.976653                       # BTB Hit Percentage
system.switch_cpus.branchPred.usedRAS         9449996                       # Number of times the RAS was used to get a target.
system.switch_cpus.branchPred.RASInCorrect          110                       # Number of incorrect RAS predictions.
system.switch_cpus.dtb.fetch_hits                   0                       # ITB hits
system.switch_cpus.dtb.fetch_misses                 0                       # ITB misses
system.switch_cpus.dtb.fetch_acv                    0                       # ITB acv
system.switch_cpus.dtb.fetch_accesses               0                       # ITB accesses
system.switch_cpus.dtb.read_hits            242277969                       # DTB read hits
system.switch_cpus.dtb.read_misses               4521                       # DTB read misses
system.switch_cpus.dtb.read_acv                     1                       # DTB read access violations
system.switch_cpus.dtb.read_accesses        242282490                       # DTB read accesses
system.switch_cpus.dtb.write_hits            81090172                       # DTB write hits
system.switch_cpus.dtb.write_misses              2252                       # DTB write misses
system.switch_cpus.dtb.write_acv                    0                       # DTB write access violations
system.switch_cpus.dtb.write_accesses        81092424                       # DTB write accesses
system.switch_cpus.dtb.data_hits            323368141                       # DTB hits
system.switch_cpus.dtb.data_misses               6773                       # DTB misses
system.switch_cpus.dtb.data_acv                     1                       # DTB access violations
system.switch_cpus.dtb.data_accesses        323374914                       # DTB accesses
system.switch_cpus.itb.fetch_hits            77407122                       # ITB hits
system.switch_cpus.itb.fetch_misses               105                       # ITB misses
system.switch_cpus.itb.fetch_acv                    0                       # ITB acv
system.switch_cpus.itb.fetch_accesses        77407227                       # ITB accesses
system.switch_cpus.itb.read_hits                    0                       # DTB read hits
system.switch_cpus.itb.read_misses                  0                       # DTB read misses
system.switch_cpus.itb.read_acv                     0                       # DTB read access violations
system.switch_cpus.itb.read_accesses                0                       # DTB read accesses
system.switch_cpus.itb.write_hits                   0                       # DTB write hits
system.switch_cpus.itb.write_misses                 0                       # DTB write misses
system.switch_cpus.itb.write_acv                    0                       # DTB write access violations
system.switch_cpus.itb.write_accesses               0                       # DTB write accesses
system.switch_cpus.itb.data_hits                    0                       # DTB hits
system.switch_cpus.itb.data_misses                  0                       # DTB misses
system.switch_cpus.itb.data_acv                     0                       # DTB access violations
system.switch_cpus.itb.data_accesses                0                       # DTB accesses
system.cpu.workload.num_syscalls                  503                       # Number of system calls
system.switch_cpus.numCycles                369694392                       # number of cpu cycles simulated
system.switch_cpus.numWorkItemsStarted              0                       # number of work items this cpu started
system.switch_cpus.numWorkItemsCompleted            0                       # number of work items this cpu completed
system.switch_cpus.fetch.icacheStallCycles     77448672                       # Number of cycles fetch is stalled on an Icache miss
system.switch_cpus.fetch.Insts              878426739                       # Number of instructions fetch has processed
system.switch_cpus.fetch.Branches            28915327                       # Number of branches that fetch encountered
system.switch_cpus.fetch.predictedBranches     27816354                       # Number of branches that fetch has predicted taken
system.switch_cpus.fetch.Cycles             128291113                       # Number of cycles fetch has run and was not squashing or blocked
system.switch_cpus.fetch.SquashCycles          158673                       # Number of cycles fetch has spent squashing
system.switch_cpus.fetch.BlockedCycles      131839388                       # Number of cycles fetch has spent blocked
system.switch_cpus.fetch.MiscStallCycles           63                       # Number of cycles fetch has spent waiting on interrupts, or bad addresses, or out of MSHRs
system.switch_cpus.fetch.PendingTrapStallCycles         1562                       # Number of stall cycles due to pending traps
system.switch_cpus.fetch.IcacheWaitRetryStallCycles           49                       # Number of stall cycles due to full MSHR
system.switch_cpus.fetch.CacheLines          77407122                       # Number of cache lines fetched
system.switch_cpus.fetch.IcacheSquashes          7245                       # Number of outstanding Icache misses that were squashed
system.switch_cpus.fetch.rateDist::samples    337709228                       # Number of instructions fetched each cycle (Total)
system.switch_cpus.fetch.rateDist::mean      2.601133                       # Number of instructions fetched each cycle (Total)
system.switch_cpus.fetch.rateDist::stdev     3.578298                       # Number of instructions fetched each cycle (Total)
system.switch_cpus.fetch.rateDist::underflows            0      0.00%      0.00% # Number of instructions fetched each cycle (Total)
system.switch_cpus.fetch.rateDist::0        209418115     62.01%     62.01% # Number of instructions fetched each cycle (Total)
system.switch_cpus.fetch.rateDist::1          4471766      1.32%     63.34% # Number of instructions fetched each cycle (Total)
system.switch_cpus.fetch.rateDist::2          8510470      2.52%     65.86% # Number of instructions fetched each cycle (Total)
system.switch_cpus.fetch.rateDist::3          4218462      1.25%     67.10% # Number of instructions fetched each cycle (Total)
system.switch_cpus.fetch.rateDist::4          5090629      1.51%     68.61% # Number of instructions fetched each cycle (Total)
system.switch_cpus.fetch.rateDist::5          2643279      0.78%     69.39% # Number of instructions fetched each cycle (Total)
system.switch_cpus.fetch.rateDist::6          6231454      1.85%     71.24% # Number of instructions fetched each cycle (Total)
system.switch_cpus.fetch.rateDist::7          3689412      1.09%     72.33% # Number of instructions fetched each cycle (Total)
system.switch_cpus.fetch.rateDist::8         93435641     27.67%    100.00% # Number of instructions fetched each cycle (Total)
system.switch_cpus.fetch.rateDist::overflows            0      0.00%    100.00% # Number of instructions fetched each cycle (Total)
system.switch_cpus.fetch.rateDist::min_value            0                       # Number of instructions fetched each cycle (Total)
system.switch_cpus.fetch.rateDist::max_value            8                       # Number of instructions fetched each cycle (Total)
system.switch_cpus.fetch.rateDist::total    337709228                       # Number of instructions fetched each cycle (Total)
system.switch_cpus.fetch.branchRate          0.078214                       # Number of branch fetches per cycle
system.switch_cpus.fetch.rate                2.376089                       # Number of inst fetches per cycle
system.switch_cpus.decode.IdleCycles        105258396                       # Number of cycles decode is idle
system.switch_cpus.decode.BlockedCycles     104044600                       # Number of cycles decode is blocked
system.switch_cpus.decode.RunCycles         105582293                       # Number of cycles decode is running
system.switch_cpus.decode.UnblockCycles      22696027                       # Number of cycles decode is unblocking
system.switch_cpus.decode.SquashCycles         127911                       # Number of cycles decode is squashing
system.switch_cpus.decode.BranchResolved      9461752                       # Number of times decode resolved a branch
system.switch_cpus.decode.BranchMispred           482                       # Number of times decode detected a branch misprediction
system.switch_cpus.decode.DecodedInsts      878333976                       # Number of instructions handled by decode
system.switch_cpus.decode.SquashedInsts          1539                       # Number of squashed instructions handled by decode
system.switch_cpus.rename.SquashCycles         127911                       # Number of cycles rename is squashing
system.switch_cpus.rename.IdleCycles        112511037                       # Number of cycles rename is idle
system.switch_cpus.rename.BlockCycles        45545851                       # Number of cycles rename is blocking
system.switch_cpus.rename.serializeStallCycles       372174                       # count of cycles rename stalled for serializing inst
system.switch_cpus.rename.RunCycles         121080384                       # Number of cycles rename is running
system.switch_cpus.rename.UnblockCycles      58071870                       # Number of cycles rename is unblocking
system.switch_cpus.rename.RenamedInsts      878199487                       # Number of instructions processed by rename
system.switch_cpus.rename.ROBFullEvents            25                       # Number of times rename has blocked due to ROB full
system.switch_cpus.rename.IQFullEvents          25296                       # Number of times rename has blocked due to IQ full
system.switch_cpus.rename.LSQFullEvents      53398339                       # Number of times rename has blocked due to LSQ full
system.switch_cpus.rename.RenamedOperands    749239920                       # Number of destination operands rename has renamed
system.switch_cpus.rename.RenameLookups    1228551647                       # Number of register rename lookups that rename has made
system.switch_cpus.rename.int_rename_lookups    855111559                       # Number of integer rename lookups
system.switch_cpus.rename.fp_rename_lookups    373440088                       # Number of floating rename lookups
system.switch_cpus.rename.CommittedMaps     748287888                       # Number of HB maps that are committed
system.switch_cpus.rename.UndoneMaps           952032                       # Number of HB maps that are undone due to squashing
system.switch_cpus.rename.serializingInsts         5811                       # count of serializing insts renamed
system.switch_cpus.rename.tempSerializingInsts         3726                       # count of temporary serializing insts renamed
system.switch_cpus.rename.skidInsts         174864536                       # count of insts added to the skid buffer
system.switch_cpus.memDep0.insertedLoads    242357396                       # Number of loads inserted to the mem dependence unit.
system.switch_cpus.memDep0.insertedStores     81140846                       # Number of stores inserted to the mem dependence unit.
system.switch_cpus.memDep0.conflictingLoads     31811887                       # Number of conflicting loads.
system.switch_cpus.memDep0.conflictingStores      2483277                       # Number of conflicting stores.
system.switch_cpus.iq.iqInstsAdded          849710404                       # Number of instructions added to the IQ (excludes non-spec)
system.switch_cpus.iq.iqNonSpecInstsAdded         6875                       # Number of non-speculative instructions added to the IQ
system.switch_cpus.iq.iqInstsIssued         849306171                       # Number of instructions issued
system.switch_cpus.iq.iqSquashedInstsIssued        11561                       # Number of squashed instructions issued
system.switch_cpus.iq.iqSquashedInstsExamined       950086                       # Number of squashed instructions iterated over during squash; mainly for profiling
system.switch_cpus.iq.iqSquashedOperandsExamined       769189                       # Number of squashed operands that are examined and possibly removed from graph
system.switch_cpus.iq.iqSquashedNonSpecRemoved          113                       # Number of squashed non-spec instructions that were removed
system.switch_cpus.iq.issued_per_cycle::samples    337709228                       # Number of insts issued each cycle
system.switch_cpus.iq.issued_per_cycle::mean     2.514904                       # Number of insts issued each cycle
system.switch_cpus.iq.issued_per_cycle::stdev     1.590374                       # Number of insts issued each cycle
system.switch_cpus.iq.issued_per_cycle::underflows            0      0.00%      0.00% # Number of insts issued each cycle
system.switch_cpus.iq.issued_per_cycle::0     35359006     10.47%     10.47% # Number of insts issued each cycle
system.switch_cpus.iq.issued_per_cycle::1     62969438     18.65%     29.12% # Number of insts issued each cycle
system.switch_cpus.iq.issued_per_cycle::2     77664501     23.00%     52.11% # Number of insts issued each cycle
system.switch_cpus.iq.issued_per_cycle::3     70356540     20.83%     72.95% # Number of insts issued each cycle
system.switch_cpus.iq.issued_per_cycle::4     50024900     14.81%     87.76% # Number of insts issued each cycle
system.switch_cpus.iq.issued_per_cycle::5     30195184      8.94%     96.70% # Number of insts issued each cycle
system.switch_cpus.iq.issued_per_cycle::6      9427837      2.79%     99.49% # Number of insts issued each cycle
system.switch_cpus.iq.issued_per_cycle::7      1399007      0.41%     99.91% # Number of insts issued each cycle
system.switch_cpus.iq.issued_per_cycle::8       312815      0.09%    100.00% # Number of insts issued each cycle
system.switch_cpus.iq.issued_per_cycle::overflows            0      0.00%    100.00% # Number of insts issued each cycle
system.switch_cpus.iq.issued_per_cycle::min_value            0                       # Number of insts issued each cycle
system.switch_cpus.iq.issued_per_cycle::max_value            8                       # Number of insts issued each cycle
system.switch_cpus.iq.issued_per_cycle::total    337709228                       # Number of insts issued each cycle
system.switch_cpus.iq.fu_full::No_OpClass            0      0.00%      0.00% # attempts to use FU when none available
system.switch_cpus.iq.fu_full::IntAlu           44364      0.41%      0.41% # attempts to use FU when none available
system.switch_cpus.iq.fu_full::IntMult              0      0.00%      0.41% # attempts to use FU when none available
system.switch_cpus.iq.fu_full::IntDiv               0      0.00%      0.41% # attempts to use FU when none available
system.switch_cpus.iq.fu_full::FloatAdd             0      0.00%      0.41% # attempts to use FU when none available
system.switch_cpus.iq.fu_full::FloatCmp             0      0.00%      0.41% # attempts to use FU when none available
system.switch_cpus.iq.fu_full::FloatCvt       1466958     13.66%     14.08% # attempts to use FU when none available
system.switch_cpus.iq.fu_full::FloatMult       750954      6.99%     21.07% # attempts to use FU when none available
system.switch_cpus.iq.fu_full::FloatDiv             0      0.00%     21.07% # attempts to use FU when none available
system.switch_cpus.iq.fu_full::FloatSqrt            0      0.00%     21.07% # attempts to use FU when none available
system.switch_cpus.iq.fu_full::SimdAdd              0      0.00%     21.07% # attempts to use FU when none available
system.switch_cpus.iq.fu_full::SimdAddAcc            0      0.00%     21.07% # attempts to use FU when none available
system.switch_cpus.iq.fu_full::SimdAlu              0      0.00%     21.07% # attempts to use FU when none available
system.switch_cpus.iq.fu_full::SimdCmp              0      0.00%     21.07% # attempts to use FU when none available
system.switch_cpus.iq.fu_full::SimdCvt              0      0.00%     21.07% # attempts to use FU when none available
system.switch_cpus.iq.fu_full::SimdMisc             0      0.00%     21.07% # attempts to use FU when none available
system.switch_cpus.iq.fu_full::SimdMult             0      0.00%     21.07% # attempts to use FU when none available
system.switch_cpus.iq.fu_full::SimdMultAcc            0      0.00%     21.07% # attempts to use FU when none available
system.switch_cpus.iq.fu_full::SimdShift            0      0.00%     21.07% # attempts to use FU when none available
system.switch_cpus.iq.fu_full::SimdShiftAcc            0      0.00%     21.07% # attempts to use FU when none available
system.switch_cpus.iq.fu_full::SimdSqrt             0      0.00%     21.07% # attempts to use FU when none available
system.switch_cpus.iq.fu_full::SimdFloatAdd            0      0.00%     21.07% # attempts to use FU when none available
system.switch_cpus.iq.fu_full::SimdFloatAlu            0      0.00%     21.07% # attempts to use FU when none available
system.switch_cpus.iq.fu_full::SimdFloatCmp            0      0.00%     21.07% # attempts to use FU when none available
system.switch_cpus.iq.fu_full::SimdFloatCvt            0      0.00%     21.07% # attempts to use FU when none available
system.switch_cpus.iq.fu_full::SimdFloatDiv            0      0.00%     21.07% # attempts to use FU when none available
system.switch_cpus.iq.fu_full::SimdFloatMisc            0      0.00%     21.07% # attempts to use FU when none available
system.switch_cpus.iq.fu_full::SimdFloatMult            0      0.00%     21.07% # attempts to use FU when none available
system.switch_cpus.iq.fu_full::SimdFloatMultAcc            0      0.00%     21.07% # attempts to use FU when none available
system.switch_cpus.iq.fu_full::SimdFloatSqrt            0      0.00%     21.07% # attempts to use FU when none available
system.switch_cpus.iq.fu_full::MemRead        4027084     37.51%     58.58% # attempts to use FU when none available
system.switch_cpus.iq.fu_full::MemWrite       4446463     41.42%    100.00% # attempts to use FU when none available
system.switch_cpus.iq.fu_full::IprAccess            0      0.00%    100.00% # attempts to use FU when none available
system.switch_cpus.iq.fu_full::InstPrefetch            0      0.00%    100.00% # attempts to use FU when none available
system.switch_cpus.iq.FU_type_0::No_OpClass          393      0.00%      0.00% # Type of FU issued
system.switch_cpus.iq.FU_type_0::IntAlu     299334550     35.24%     35.24% # Type of FU issued
system.switch_cpus.iq.FU_type_0::IntMult     18887780      2.22%     37.47% # Type of FU issued
system.switch_cpus.iq.FU_type_0::IntDiv             0      0.00%     37.47% # Type of FU issued
system.switch_cpus.iq.FU_type_0::FloatAdd    127957205     15.07%     52.53% # Type of FU issued
system.switch_cpus.iq.FU_type_0::FloatCmp            3      0.00%     52.53% # Type of FU issued
system.switch_cpus.iq.FU_type_0::FloatCvt     48252115      5.68%     58.22% # Type of FU issued
system.switch_cpus.iq.FU_type_0::FloatMult     28320081      3.33%     61.55% # Type of FU issued
system.switch_cpus.iq.FU_type_0::FloatDiv      3147060      0.37%     61.92% # Type of FU issued
system.switch_cpus.iq.FU_type_0::FloatSqrt            0      0.00%     61.92% # Type of FU issued
system.switch_cpus.iq.FU_type_0::SimdAdd            0      0.00%     61.92% # Type of FU issued
system.switch_cpus.iq.FU_type_0::SimdAddAcc            0      0.00%     61.92% # Type of FU issued
system.switch_cpus.iq.FU_type_0::SimdAlu            0      0.00%     61.92% # Type of FU issued
system.switch_cpus.iq.FU_type_0::SimdCmp            0      0.00%     61.92% # Type of FU issued
system.switch_cpus.iq.FU_type_0::SimdCvt            0      0.00%     61.92% # Type of FU issued
system.switch_cpus.iq.FU_type_0::SimdMisc            0      0.00%     61.92% # Type of FU issued
system.switch_cpus.iq.FU_type_0::SimdMult            0      0.00%     61.92% # Type of FU issued
system.switch_cpus.iq.FU_type_0::SimdMultAcc            0      0.00%     61.92% # Type of FU issued
system.switch_cpus.iq.FU_type_0::SimdShift            0      0.00%     61.92% # Type of FU issued
system.switch_cpus.iq.FU_type_0::SimdShiftAcc            0      0.00%     61.92% # Type of FU issued
system.switch_cpus.iq.FU_type_0::SimdSqrt            0      0.00%     61.92% # Type of FU issued
system.switch_cpus.iq.FU_type_0::SimdFloatAdd            0      0.00%     61.92% # Type of FU issued
system.switch_cpus.iq.FU_type_0::SimdFloatAlu            0      0.00%     61.92% # Type of FU issued
system.switch_cpus.iq.FU_type_0::SimdFloatCmp            0      0.00%     61.92% # Type of FU issued
system.switch_cpus.iq.FU_type_0::SimdFloatCvt            0      0.00%     61.92% # Type of FU issued
system.switch_cpus.iq.FU_type_0::SimdFloatDiv            0      0.00%     61.92% # Type of FU issued
system.switch_cpus.iq.FU_type_0::SimdFloatMisc            0      0.00%     61.92% # Type of FU issued
system.switch_cpus.iq.FU_type_0::SimdFloatMult            0      0.00%     61.92% # Type of FU issued
system.switch_cpus.iq.FU_type_0::SimdFloatMultAcc            0      0.00%     61.92% # Type of FU issued
system.switch_cpus.iq.FU_type_0::SimdFloatSqrt            0      0.00%     61.92% # Type of FU issued
system.switch_cpus.iq.FU_type_0::MemRead    242310394     28.53%     90.45% # Type of FU issued
system.switch_cpus.iq.FU_type_0::MemWrite     81096590      9.55%    100.00% # Type of FU issued
system.switch_cpus.iq.FU_type_0::IprAccess            0      0.00%    100.00% # Type of FU issued
system.switch_cpus.iq.FU_type_0::InstPrefetch            0      0.00%    100.00% # Type of FU issued
system.switch_cpus.iq.FU_type_0::total      849306171                       # Type of FU issued
system.switch_cpus.iq.rate                   2.297320                       # Inst issue rate
system.switch_cpus.iq.fu_busy_cnt            10735823                       # FU busy when requested
system.switch_cpus.iq.fu_busy_rate           0.012641                       # FU busy rate (busy events/executed inst)
system.switch_cpus.iq.int_inst_queue_reads   1520384851                       # Number of integer instruction queue reads
system.switch_cpus.iq.int_inst_queue_writes    588346802                       # Number of integer instruction queue writes
system.switch_cpus.iq.int_inst_queue_wakeup_accesses    586990330                       # Number of integer instruction queue wakeup accesses
system.switch_cpus.iq.fp_inst_queue_reads    526684103                       # Number of floating instruction queue reads
system.switch_cpus.iq.fp_inst_queue_writes    262332663                       # Number of floating instruction queue writes
system.switch_cpus.iq.fp_inst_queue_wakeup_accesses    262222978                       # Number of floating instruction queue wakeup accesses
system.switch_cpus.iq.int_alu_accesses      595589474                       # Number of integer alu accesses
system.switch_cpus.iq.fp_alu_accesses       264452127                       # Number of floating point alu accesses
system.switch_cpus.iew.lsq.thread0.forwLoads     32696194                       # Number of loads that had data forwarded from stores
system.switch_cpus.iew.lsq.thread0.invAddrLoads            0                       # Number of loads ignored due to an invalid address
system.switch_cpus.iew.lsq.thread0.squashedLoads       306864                       # Number of loads squashed
system.switch_cpus.iew.lsq.thread0.ignoredResponses          723                       # Number of memory responses ignored because the instruction is squashed
system.switch_cpus.iew.lsq.thread0.memOrderViolation        12220                       # Number of memory ordering violations
system.switch_cpus.iew.lsq.thread0.squashedStores        93931                       # Number of stores squashed
system.switch_cpus.iew.lsq.thread0.invAddrSwpfs            0                       # Number of software prefetches ignored due to an invalid address
system.switch_cpus.iew.lsq.thread0.blockedLoads            0                       # Number of blocked loads due to partial load-store forwarding
system.switch_cpus.iew.lsq.thread0.rescheduledLoads           15                       # Number of loads that were rescheduled
system.switch_cpus.iew.lsq.thread0.cacheBlocked          783                       # Number of times an access to memory failed due to the cache being blocked
system.switch_cpus.iew.iewIdleCycles                0                       # Number of cycles IEW is idle
system.switch_cpus.iew.iewSquashCycles         127911                       # Number of cycles IEW is squashing
system.switch_cpus.iew.iewBlockCycles        13364374                       # Number of cycles IEW is blocking
system.switch_cpus.iew.iewUnblockCycles       1043719                       # Number of cycles IEW is unblocking
system.switch_cpus.iew.iewDispatchedInsts    878055038                       # Number of instructions dispatched to IQ
system.switch_cpus.iew.iewDispSquashedInsts         5787                       # Number of squashed instructions skipped by dispatch
system.switch_cpus.iew.iewDispLoadInsts     242357396                       # Number of dispatched load instructions
system.switch_cpus.iew.iewDispStoreInsts     81140846                       # Number of dispatched store instructions
system.switch_cpus.iew.iewDispNonSpecInsts         3722                       # Number of dispatched non-speculative instructions
system.switch_cpus.iew.iewIQFullEvents          37296                       # Number of times the IQ has become full, causing a stall
system.switch_cpus.iew.iewLSQFullEvents         84312                       # Number of times the LSQ has become full, causing a stall
system.switch_cpus.iew.memOrderViolationEvents        12220                       # Number of memory order violations
system.switch_cpus.iew.predictedTakenIncorrect        10211                       # Number of branches that were predicted taken incorrectly
system.switch_cpus.iew.predictedNotTakenIncorrect         4150                       # Number of branches that were predicted not taken incorrectly
system.switch_cpus.iew.branchMispredicts        14361                       # Number of branch mispredicts detected at execute
system.switch_cpus.iew.iewExecutedInsts     849262950                       # Number of executed instructions
system.switch_cpus.iew.iewExecLoadInsts     242282496                       # Number of load instructions executed
system.switch_cpus.iew.iewExecSquashedInsts        43221                       # Number of squashed instructions skipped in execute
system.switch_cpus.iew.exec_swp                     0                       # number of swp insts executed
system.switch_cpus.iew.exec_nop              28337759                       # number of nop insts executed
system.switch_cpus.iew.exec_refs            323374921                       # number of memory reference insts executed
system.switch_cpus.iew.exec_branches         28892131                       # Number of branches executed
system.switch_cpus.iew.exec_stores           81092425                       # Number of stores executed
system.switch_cpus.iew.exec_rate             2.297203                       # Inst execution rate
system.switch_cpus.iew.wb_sent              849235994                       # cumulative count of insts sent to commit
system.switch_cpus.iew.wb_count             849213308                       # cumulative count of insts written-back
system.switch_cpus.iew.wb_producers         723390005                       # num instructions producing a value
system.switch_cpus.iew.wb_consumers         816054118                       # num instructions consuming a value
system.switch_cpus.iew.wb_penalized                 0                       # number of instrctions required to write to 'other' IQ
system.switch_cpus.iew.wb_rate               2.297068                       # insts written-back per cycle
system.switch_cpus.iew.wb_fanout             0.886449                       # average fanout of values written-back
system.switch_cpus.iew.wb_penalized_rate            0                       # fraction of instructions written-back that wrote to 'other' IQ
system.switch_cpus.commit.commitSquashedInsts       877111                       # The number of squashed insts skipped by commit
system.switch_cpus.commit.commitNonSpecStalls         6762                       # The number of times commit has been forced to stall to communicate backwards
system.switch_cpus.commit.branchMispredicts        13378                       # The number of times a branch was mispredicted
system.switch_cpus.commit.committed_per_cycle::samples    337581317                       # Number of insts commited each cycle
system.switch_cpus.commit.committed_per_cycle::mean     2.598161                       # Number of insts commited each cycle
system.switch_cpus.commit.committed_per_cycle::stdev     3.281809                       # Number of insts commited each cycle
system.switch_cpus.commit.committed_per_cycle::underflows            0      0.00%      0.00% # Number of insts commited each cycle
system.switch_cpus.commit.committed_per_cycle::0    132265586     39.18%     39.18% # Number of insts commited each cycle
system.switch_cpus.commit.committed_per_cycle::1     87699078     25.98%     65.16% # Number of insts commited each cycle
system.switch_cpus.commit.committed_per_cycle::2     11709650      3.47%     68.63% # Number of insts commited each cycle
system.switch_cpus.commit.committed_per_cycle::3      5935926      1.76%     70.39% # Number of insts commited each cycle
system.switch_cpus.commit.committed_per_cycle::4      5698608      1.69%     72.07% # Number of insts commited each cycle
system.switch_cpus.commit.committed_per_cycle::5      3774443      1.12%     73.19% # Number of insts commited each cycle
system.switch_cpus.commit.committed_per_cycle::6      5793282      1.72%     74.91% # Number of insts commited each cycle
system.switch_cpus.commit.committed_per_cycle::7      5899765      1.75%     76.66% # Number of insts commited each cycle
system.switch_cpus.commit.committed_per_cycle::8     78804979     23.34%    100.00% # Number of insts commited each cycle
system.switch_cpus.commit.committed_per_cycle::overflows            0      0.00%    100.00% # Number of insts commited each cycle
system.switch_cpus.commit.committed_per_cycle::min_value            0                       # Number of insts commited each cycle
system.switch_cpus.commit.committed_per_cycle::max_value            8                       # Number of insts commited each cycle
system.switch_cpus.commit.committed_per_cycle::total    337581317                       # Number of insts commited each cycle
system.switch_cpus.commit.committedInsts    877090682                       # Number of instructions committed
system.switch_cpus.commit.committedOps      877090682                       # Number of ops (including micro ops) committed
system.switch_cpus.commit.swp_count                 0                       # Number of s/w prefetches committed
system.switch_cpus.commit.refs              323097447                       # Number of memory references committed
system.switch_cpus.commit.loads             242050532                       # Number of loads committed
system.switch_cpus.commit.membars                3127                       # Number of memory barriers committed
system.switch_cpus.commit.branches           28869599                       # Number of branches committed
system.switch_cpus.commit.fp_insts          262150420                       # Number of committed floating point instructions.
system.switch_cpus.commit.int_insts         689356808                       # Number of committed integer instructions.
system.switch_cpus.commit.function_calls      9447851                       # Number of function calls committed.
system.switch_cpus.commit.bw_lim_events      78804979                       # number cycles where commit BW limit reached
system.switch_cpus.commit.bw_limited                0                       # number of insts not committed due to BW limits
system.switch_cpus.rob.rob_reads           1136690051                       # The number of ROB reads
system.switch_cpus.rob.rob_writes          1756063818                       # The number of ROB writes
system.switch_cpus.timesIdled                  489532                       # Number of times that the entire CPU went into an idle state and unscheduled itself
system.switch_cpus.idleCycles                31985164                       # Total number of cycles that the CPU has spent unscheduled due to idling
system.switch_cpus.committedInsts           848757450                       # Number of Instructions Simulated
system.switch_cpus.committedOps             848757450                       # Number of Ops (including micro ops) Simulated
system.switch_cpus.committedInsts_total     848757450                       # Number of Instructions Simulated
system.switch_cpus.cpi                       0.435571                       # CPI: Cycles Per Instruction
system.switch_cpus.cpi_total                 0.435571                       # CPI: Total CPI of All Threads
system.switch_cpus.ipc                       2.295835                       # IPC: Instructions Per Cycle
system.switch_cpus.ipc_total                 2.295835                       # IPC: Total IPC of All Threads
system.switch_cpus.int_regfile_reads        949653809                       # number of integer regfile reads
system.switch_cpus.int_regfile_writes       502208593                       # number of integer regfile writes
system.switch_cpus.fp_regfile_reads         277934626                       # number of floating regfile reads
system.switch_cpus.fp_regfile_writes        246488528                       # number of floating regfile writes
system.switch_cpus.misc_regfile_reads         8396474                       # number of misc regfile reads
system.switch_cpus.misc_regfile_writes           6255                       # number of misc regfile writes
system.l2.tags.replacements                    485094                       # number of replacements
system.l2.tags.tagsinuse                  7983.308119                       # Cycle average of tags in use
system.l2.tags.total_refs                      212322                       # Total number of references to valid blocks.
system.l2.tags.sampled_refs                    493262                       # Sample count of references to valid blocks.
system.l2.tags.avg_refs                      0.430445                       # Average number of references to valid blocks.
system.l2.tags.warmup_cycle                         0                       # Cycle when the warmup percentage was hit.
system.l2.tags.occ_blocks::writebacks     5527.713371                       # Average occupied blocks per requestor
system.l2.tags.occ_blocks::switch_cpus.inst     7.646908                       # Average occupied blocks per requestor
system.l2.tags.occ_blocks::switch_cpus.data  2446.952061                       # Average occupied blocks per requestor
system.l2.tags.occ_blocks::cpu.inst          0.790271                       # Average occupied blocks per requestor
system.l2.tags.occ_blocks::cpu.data          0.205508                       # Average occupied blocks per requestor
system.l2.tags.occ_percent::writebacks       0.674770                       # Average percentage of cache occupancy
system.l2.tags.occ_percent::switch_cpus.inst     0.000933                       # Average percentage of cache occupancy
system.l2.tags.occ_percent::switch_cpus.data     0.298700                       # Average percentage of cache occupancy
system.l2.tags.occ_percent::cpu.inst         0.000096                       # Average percentage of cache occupancy
system.l2.tags.occ_percent::cpu.data         0.000025                       # Average percentage of cache occupancy
system.l2.tags.occ_percent::total            0.974525                       # Average percentage of cache occupancy
system.l2.ReadReq_hits::switch_cpus.inst           74                       # number of ReadReq hits
system.l2.ReadReq_hits::switch_cpus.data       128575                       # number of ReadReq hits
system.l2.ReadReq_hits::total                  128649                       # number of ReadReq hits
system.l2.Writeback_hits::writebacks           329665                       # number of Writeback hits
system.l2.Writeback_hits::total                329665                       # number of Writeback hits
system.l2.ReadExReq_hits::switch_cpus.data        51737                       # number of ReadExReq hits
system.l2.ReadExReq_hits::total                 51737                       # number of ReadExReq hits
system.l2.demand_hits::switch_cpus.inst            74                       # number of demand (read+write) hits
system.l2.demand_hits::switch_cpus.data        180312                       # number of demand (read+write) hits
system.l2.demand_hits::total                   180386                       # number of demand (read+write) hits
system.l2.overall_hits::switch_cpus.inst           74                       # number of overall hits
system.l2.overall_hits::switch_cpus.data       180312                       # number of overall hits
system.l2.overall_hits::total                  180386                       # number of overall hits
system.l2.ReadReq_misses::switch_cpus.inst          978                       # number of ReadReq misses
system.l2.ReadReq_misses::switch_cpus.data       246037                       # number of ReadReq misses
system.l2.ReadReq_misses::total                247015                       # number of ReadReq misses
system.l2.ReadExReq_misses::switch_cpus.data       245987                       # number of ReadExReq misses
system.l2.ReadExReq_misses::total              245987                       # number of ReadExReq misses
system.l2.demand_misses::switch_cpus.inst          978                       # number of demand (read+write) misses
system.l2.demand_misses::switch_cpus.data       492024                       # number of demand (read+write) misses
system.l2.demand_misses::total                 493002                       # number of demand (read+write) misses
system.l2.overall_misses::switch_cpus.inst          978                       # number of overall misses
system.l2.overall_misses::switch_cpus.data       492024                       # number of overall misses
system.l2.overall_misses::total                493002                       # number of overall misses
system.l2.ReadReq_miss_latency::switch_cpus.inst     65877500                       # number of ReadReq miss cycles
system.l2.ReadReq_miss_latency::switch_cpus.data  15046917500                       # number of ReadReq miss cycles
system.l2.ReadReq_miss_latency::total     15112795000                       # number of ReadReq miss cycles
system.l2.ReadExReq_miss_latency::switch_cpus.data  15336900500                       # number of ReadExReq miss cycles
system.l2.ReadExReq_miss_latency::total   15336900500                       # number of ReadExReq miss cycles
system.l2.demand_miss_latency::switch_cpus.inst     65877500                       # number of demand (read+write) miss cycles
system.l2.demand_miss_latency::switch_cpus.data  30383818000                       # number of demand (read+write) miss cycles
system.l2.demand_miss_latency::total      30449695500                       # number of demand (read+write) miss cycles
system.l2.overall_miss_latency::switch_cpus.inst     65877500                       # number of overall miss cycles
system.l2.overall_miss_latency::switch_cpus.data  30383818000                       # number of overall miss cycles
system.l2.overall_miss_latency::total     30449695500                       # number of overall miss cycles
system.l2.ReadReq_accesses::switch_cpus.inst         1052                       # number of ReadReq accesses(hits+misses)
system.l2.ReadReq_accesses::switch_cpus.data       374612                       # number of ReadReq accesses(hits+misses)
system.l2.ReadReq_accesses::total              375664                       # number of ReadReq accesses(hits+misses)
system.l2.Writeback_accesses::writebacks       329665                       # number of Writeback accesses(hits+misses)
system.l2.Writeback_accesses::total            329665                       # number of Writeback accesses(hits+misses)
system.l2.ReadExReq_accesses::switch_cpus.data       297724                       # number of ReadExReq accesses(hits+misses)
system.l2.ReadExReq_accesses::total            297724                       # number of ReadExReq accesses(hits+misses)
system.l2.demand_accesses::switch_cpus.inst         1052                       # number of demand (read+write) accesses
[...]
system.cpu.icache.overall_mshr_hits::total          413                       # number of overall MSHR hits
system.cpu.icache.ReadReq_mshr_misses::switch_cpus.inst         1052                       # number of ReadReq MSHR misses
system.cpu.icache.ReadReq_mshr_misses::total         1052                       # number of ReadReq MSHR misses
system.cpu.icache.demand_mshr_misses::switch_cpus.inst         1052                       # number of demand (read+write) MSHR misses
system.cpu.icache.demand_mshr_misses::total         1052                       # number of demand (read+write) MSHR misses
system.cpu.icache.overall_mshr_misses::switch_cpus.inst         1052                       # number of overall MSHR misses
system.cpu.icache.overall_mshr_misses::total         1052                       # number of overall MSHR misses
system.cpu.icache.ReadReq_mshr_miss_latency::switch_cpus.inst     67680000                       # number of ReadReq MSHR miss cycles
system.cpu.icache.ReadReq_mshr_miss_latency::total     67680000                       # number of ReadReq MSHR miss cycles
system.cpu.icache.demand_mshr_miss_latency::switch_cpus.inst     67680000                       # number of demand (read+write) MSHR miss cycles
system.cpu.icache.demand_mshr_miss_latency::total     67680000                       # number of demand (read+write) MSHR miss cycles
system.cpu.icache.overall_mshr_miss_latency::switch_cpus.inst     67680000                       # number of overall MSHR miss cycles
system.cpu.icache.overall_mshr_miss_latency::total     67680000                       # number of overall MSHR miss cycles
system.cpu.icache.ReadReq_mshr_miss_rate::switch_cpus.inst     0.000014                       # mshr miss rate for ReadReq accesses
system.cpu.icache.ReadReq_mshr_miss_rate::total     0.000014                       # mshr miss rate for ReadReq accesses
system.cpu.icache.demand_mshr_miss_rate::switch_cpus.inst     0.000014                       # mshr miss rate for demand accesses
system.cpu.icache.demand_mshr_miss_rate::total     0.000014                       # mshr miss rate for demand accesses
system.cpu.icache.overall_mshr_miss_rate::switch_cpus.inst     0.000014                       # mshr miss rate for overall accesses
system.cpu.icache.overall_mshr_miss_rate::total     0.000014                       # mshr miss rate for overall accesses
system.cpu.icache.ReadReq_avg_mshr_miss_latency::switch_cpus.inst 64334.600760                       # average ReadReq mshr miss latency
system.cpu.icache.ReadReq_avg_mshr_miss_latency::total 64334.600760                       # average ReadReq mshr miss latency
system.cpu.icache.demand_avg_mshr_miss_latency::switch_cpus.inst 64334.600760                       # average overall mshr miss latency
system.cpu.icache.demand_avg_mshr_miss_latency::total 64334.600760                       # average overall mshr miss latency
system.cpu.icache.overall_avg_mshr_miss_latency::switch_cpus.inst 64334.600760                       # average overall mshr miss latency
system.cpu.icache.overall_avg_mshr_miss_latency::total 64334.600760                       # average overall mshr miss latency
system.cpu.icache.no_allocate_misses                0                       # Number of misses that were no-allocate
system.cpu.dcache.tags.replacements            671909                       # number of replacements
system.cpu.dcache.tags.tagsinuse           504.852703                       # Cycle average of tags in use
system.cpu.dcache.tags.total_refs           288284713                       # Total number of references to valid blocks.
system.cpu.dcache.tags.sampled_refs            672414                       # Sample count of references to valid blocks.
system.cpu.dcache.tags.avg_refs            428.730980                       # Average number of references to valid blocks.
system.cpu.dcache.tags.warmup_cycle                 0                       # Cycle when the warmup percentage was hit.
system.cpu.dcache.tags.occ_blocks::switch_cpus.data   504.836477                       # Average occupied blocks per requestor
system.cpu.dcache.tags.occ_blocks::cpu.data     0.016226                       # Average occupied blocks per requestor
system.cpu.dcache.tags.occ_percent::switch_cpus.data     0.986009                       # Average percentage of cache occupancy
system.cpu.dcache.tags.occ_percent::cpu.data     0.000032                       # Average percentage of cache occupancy
system.cpu.dcache.tags.occ_percent::total     0.986040                       # Average percentage of cache occupancy
system.cpu.dcache.ReadReq_hits::switch_cpus.data    208286326                       # number of ReadReq hits
system.cpu.dcache.ReadReq_hits::total       208286326                       # number of ReadReq hits
system.cpu.dcache.WriteReq_hits::switch_cpus.data     79993173                       # number of WriteReq hits
system.cpu.dcache.WriteReq_hits::total       79993173                       # number of WriteReq hits
system.cpu.dcache.LoadLockedReq_hits::switch_cpus.data         1586                       # number of LoadLockedReq hits
system.cpu.dcache.LoadLockedReq_hits::total         1586                       # number of LoadLockedReq hits
system.cpu.dcache.StoreCondReq_hits::switch_cpus.data         3127                       # number of StoreCondReq hits
system.cpu.dcache.StoreCondReq_hits::total         3127                       # number of StoreCondReq hits
system.cpu.dcache.demand_hits::switch_cpus.data    288279499                       # number of demand (read+write) hits
system.cpu.dcache.demand_hits::total        288279499                       # number of demand (read+write) hits
system.cpu.dcache.overall_hits::switch_cpus.data    288279499                       # number of overall hits
system.cpu.dcache.overall_hits::total       288279499                       # number of overall hits
system.cpu.dcache.ReadReq_misses::switch_cpus.data      1291539                       # number of ReadReq misses
system.cpu.dcache.ReadReq_misses::total       1291539                       # number of ReadReq misses
system.cpu.dcache.WriteReq_misses::switch_cpus.data      1050615                       # number of WriteReq misses
system.cpu.dcache.WriteReq_misses::total      1050615                       # number of WriteReq misses
system.cpu.dcache.LoadLockedReq_misses::switch_cpus.data         1543                       # number of LoadLockedReq misses
system.cpu.dcache.LoadLockedReq_misses::total         1543                       # number of LoadLockedReq misses
system.cpu.dcache.demand_misses::switch_cpus.data      2342154                       # number of demand (read+write) misses
system.cpu.dcache.demand_misses::total        2342154                       # number of demand (read+write) misses
system.cpu.dcache.overall_misses::switch_cpus.data      2342154                       # number of overall misses
system.cpu.dcache.overall_misses::total       2342154                       # number of overall misses
system.cpu.dcache.ReadReq_miss_latency::switch_cpus.data  57042508750                       # number of ReadReq miss cycles
system.cpu.dcache.ReadReq_miss_latency::total  57042508750                       # number of ReadReq miss cycles
system.cpu.dcache.WriteReq_miss_latency::switch_cpus.data  47067916733                       # number of WriteReq miss cycles
system.cpu.dcache.WriteReq_miss_latency::total  47067916733                       # number of WriteReq miss cycles
system.cpu.dcache.LoadLockedReq_miss_latency::switch_cpus.data     21131500                       # number of LoadLockedReq miss cycles
system.cpu.dcache.LoadLockedReq_miss_latency::total     21131500                       # number of LoadLockedReq miss cycles
system.cpu.dcache.demand_miss_latency::switch_cpus.data 104110425483                       # number of demand (read+write) miss cycles
system.cpu.dcache.demand_miss_latency::total 104110425483                       # number of demand (read+write) miss cycles
system.cpu.dcache.overall_miss_latency::switch_cpus.data 104110425483                       # number of overall miss cycles
system.cpu.dcache.overall_miss_latency::total 104110425483                       # number of overall miss cycles
system.cpu.dcache.ReadReq_accesses::switch_cpus.data    209577865                       # number of ReadReq accesses(hits+misses)
system.cpu.dcache.ReadReq_accesses::total    209577865                       # number of ReadReq accesses(hits+misses)
system.cpu.dcache.WriteReq_accesses::switch_cpus.data     81043788                       # number of WriteReq accesses(hits+misses)
system.cpu.dcache.WriteReq_accesses::total     81043788                       # number of WriteReq accesses(hits+misses)
system.cpu.dcache.LoadLockedReq_accesses::switch_cpus.data         3129                       # number of LoadLockedReq accesses(hits+misses)
system.cpu.dcache.LoadLockedReq_accesses::total         3129                       # number of LoadLockedReq accesses(hits+misses)
system.cpu.dcache.StoreCondReq_accesses::switch_cpus.data         3127                       # number of StoreCondReq accesses(hits+misses)
system.cpu.dcache.StoreCondReq_accesses::total         3127                       # number of StoreCondReq accesses(hits+misses)
system.cpu.dcache.demand_accesses::switch_cpus.data    290621653                       # number of demand (read+write) accesses
system.cpu.dcache.demand_accesses::total    290621653                       # number of demand (read+write) accesses
system.cpu.dcache.overall_accesses::switch_cpus.data    290621653                       # number of overall (read+write) accesses
system.cpu.dcache.overall_accesses::total    290621653                       # number of overall (read+write) accesses
system.cpu.dcache.ReadReq_miss_rate::switch_cpus.data     0.006163                       # miss rate for ReadReq accesses
system.cpu.dcache.ReadReq_miss_rate::total     0.006163                       # miss rate for ReadReq accesses
system.cpu.dcache.WriteReq_miss_rate::switch_cpus.data     0.012964                       # miss rate for WriteReq accesses
system.cpu.dcache.WriteReq_miss_rate::total     0.012964                       # miss rate for WriteReq accesses
system.cpu.dcache.LoadLockedReq_miss_rate::switch_cpus.data     0.493129                       # miss rate for LoadLockedReq accesses
system.cpu.dcache.LoadLockedReq_miss_rate::total     0.493129                       # miss rate for LoadLockedReq accesses
system.cpu.dcache.demand_miss_rate::switch_cpus.data     0.008059                       # miss rate for demand accesses
system.cpu.dcache.demand_miss_rate::total     0.008059                       # miss rate for demand accesses
system.cpu.dcache.overall_miss_rate::switch_cpus.data     0.008059                       # miss rate for overall accesses
system.cpu.dcache.overall_miss_rate::total     0.008059                       # miss rate for overall accesses
system.cpu.dcache.ReadReq_avg_miss_latency::switch_cpus.data 44166.307599                       # average ReadReq miss latency
system.cpu.dcache.ReadReq_avg_miss_latency::total 44166.307599                       # average ReadReq miss latency
system.cpu.dcache.WriteReq_avg_miss_latency::switch_cpus.data 44800.347161                       # average WriteReq miss latency
system.cpu.dcache.WriteReq_avg_miss_latency::total 44800.347161                       # average WriteReq miss latency
system.cpu.dcache.LoadLockedReq_avg_miss_latency::switch_cpus.data 13695.074530                       # average LoadLockedReq miss latency
system.cpu.dcache.LoadLockedReq_avg_miss_latency::total 13695.074530                       # average LoadLockedReq miss latency
system.cpu.dcache.demand_avg_miss_latency::switch_cpus.data 44450.717367                       # average overall miss latency
system.cpu.dcache.demand_avg_miss_latency::total 44450.717367                       # average overall miss latency
system.cpu.dcache.overall_avg_miss_latency::switch_cpus.data 44450.717367                       # average overall miss latency
system.cpu.dcache.overall_avg_miss_latency::total 44450.717367                       # average overall miss latency
system.cpu.dcache.blocked_cycles::no_mshrs         5906                       # number of cycles access was blocked
system.cpu.dcache.blocked_cycles::no_targets            0                       # number of cycles access was blocked
system.cpu.dcache.blocked::no_mshrs               181                       # number of cycles access was blocked
system.cpu.dcache.blocked::no_targets               0                       # number of cycles access was blocked
system.cpu.dcache.avg_blocked_cycles::no_mshrs    32.629834                       # average number of cycles each access was blocked
system.cpu.dcache.avg_blocked_cycles::no_targets          nan                       # average number of cycles each access was blocked
system.cpu.dcache.fast_writes                       0                       # number of fast writes performed
system.cpu.dcache.cache_copies                      0                       # number of cache copies performed
system.cpu.dcache.writebacks::writebacks       329665                       # number of writebacks
system.cpu.dcache.writebacks::total            329665                       # number of writebacks
system.cpu.dcache.ReadReq_mshr_hits::switch_cpus.data       916929                       # number of ReadReq MSHR hits
system.cpu.dcache.ReadReq_mshr_hits::total       916929                       # number of ReadReq MSHR hits
system.cpu.dcache.WriteReq_mshr_hits::switch_cpus.data       752891                       # number of WriteReq MSHR hits
system.cpu.dcache.WriteReq_mshr_hits::total       752891                       # number of WriteReq MSHR hits
system.cpu.dcache.LoadLockedReq_mshr_hits::switch_cpus.data         1541                       # number of LoadLockedReq MSHR hits
system.cpu.dcache.LoadLockedReq_mshr_hits::total         1541                       # number of LoadLockedReq MSHR hits
system.cpu.dcache.demand_mshr_hits::switch_cpus.data      1669820                       # number of demand (read+write) MSHR hits
system.cpu.dcache.demand_mshr_hits::total      1669820                       # number of demand (read+write) MSHR hits
system.cpu.dcache.overall_mshr_hits::switch_cpus.data      1669820                       # number of overall MSHR hits
system.cpu.dcache.overall_mshr_hits::total      1669820                       # number of overall MSHR hits
system.cpu.dcache.ReadReq_mshr_misses::switch_cpus.data       374610                       # number of ReadReq MSHR misses
system.cpu.dcache.ReadReq_mshr_misses::total       374610                       # number of ReadReq MSHR misses
system.cpu.dcache.WriteReq_mshr_misses::switch_cpus.data       297724                       # number of WriteReq MSHR misses
system.cpu.dcache.WriteReq_mshr_misses::total       297724                       # number of WriteReq MSHR misses
system.cpu.dcache.LoadLockedReq_mshr_misses::switch_cpus.data            2                       # number of LoadLockedReq MSHR misses
system.cpu.dcache.LoadLockedReq_mshr_misses::total            2                       # number of LoadLockedReq MSHR misses
system.cpu.dcache.demand_mshr_misses::switch_cpus.data       672334                       # number of demand (read+write) MSHR misses
system.cpu.dcache.demand_mshr_misses::total       672334                       # number of demand (read+write) MSHR misses
system.cpu.dcache.overall_mshr_misses::switch_cpus.data       672334                       # number of overall MSHR misses
system.cpu.dcache.overall_mshr_misses::total       672334                       # number of overall MSHR misses
system.cpu.dcache.ReadReq_mshr_miss_latency::switch_cpus.data  16712251750                       # number of ReadReq MSHR miss cycles
system.cpu.dcache.ReadReq_mshr_miss_latency::total  16712251750                       # number of ReadReq MSHR miss cycles
system.cpu.dcache.WriteReq_mshr_miss_latency::switch_cpus.data  16157230499                       # number of WriteReq MSHR miss cycles
system.cpu.dcache.WriteReq_mshr_miss_latency::total  16157230499                       # number of WriteReq MSHR miss cycles
system.cpu.dcache.LoadLockedReq_mshr_miss_latency::switch_cpus.data       108250                       # number of LoadLockedReq MSHR miss cycles
system.cpu.dcache.LoadLockedReq_mshr_miss_latency::total       108250                       # number of LoadLockedReq MSHR miss cycles
system.cpu.dcache.demand_mshr_miss_latency::switch_cpus.data  32869482249                       # number of demand (read+write) MSHR miss cycles
system.cpu.dcache.demand_mshr_miss_latency::total  32869482249                       # number of demand (read+write) MSHR miss cycles
system.cpu.dcache.overall_mshr_miss_latency::switch_cpus.data  32869482249                       # number of overall MSHR miss cycles
system.cpu.dcache.overall_mshr_miss_latency::total  32869482249                       # number of overall MSHR miss cycles
system.cpu.dcache.ReadReq_mshr_miss_rate::switch_cpus.data     0.001787                       # mshr miss rate for ReadReq accesses
system.cpu.dcache.ReadReq_mshr_miss_rate::total     0.001787                       # mshr miss rate for ReadReq accesses
system.cpu.dcache.WriteReq_mshr_miss_rate::switch_cpus.data     0.003674                       # mshr miss rate for WriteReq accesses
system.cpu.dcache.WriteReq_mshr_miss_rate::total     0.003674                       # mshr miss rate for WriteReq accesses
system.cpu.dcache.LoadLockedReq_mshr_miss_rate::switch_cpus.data     0.000639                       # mshr miss rate for LoadLockedReq accesses
system.cpu.dcache.LoadLockedReq_mshr_miss_rate::total     0.000639                       # mshr miss rate for LoadLockedReq accesses
system.cpu.dcache.demand_mshr_miss_rate::switch_cpus.data     0.002313                       # mshr miss rate for demand accesses
system.cpu.dcache.demand_mshr_miss_rate::total     0.002313                       # mshr miss rate for demand accesses
system.cpu.dcache.overall_mshr_miss_rate::switch_cpus.data     0.002313                       # mshr miss rate for overall accesses
system.cpu.dcache.overall_mshr_miss_rate::total     0.002313                       # mshr miss rate for overall accesses
system.cpu.dcache.ReadReq_avg_mshr_miss_latency::switch_cpus.data 44612.401564                       # average ReadReq mshr miss latency
system.cpu.dcache.ReadReq_avg_mshr_miss_latency::total 44612.401564                       # average ReadReq mshr miss latency
system.cpu.dcache.WriteReq_avg_mshr_miss_latency::switch_cpus.data 54269.157001                       # average WriteReq mshr miss latency
system.cpu.dcache.WriteReq_avg_mshr_miss_latency::total 54269.157001                       # average WriteReq mshr miss latency
system.cpu.dcache.LoadLockedReq_avg_mshr_miss_latency::switch_cpus.data        54125                       # average LoadLockedReq mshr miss latency
system.cpu.dcache.LoadLockedReq_avg_mshr_miss_latency::total        54125                       # average LoadLockedReq mshr miss latency
system.cpu.dcache.demand_avg_mshr_miss_latency::switch_cpus.data 48888.621205                       # average overall mshr miss latency
system.cpu.dcache.demand_avg_mshr_miss_latency::total 48888.621205                       # average overall mshr miss latency
system.cpu.dcache.overall_avg_mshr_miss_latency::switch_cpus.data 48888.621205                       # average overall mshr miss latency
system.cpu.dcache.overall_avg_mshr_miss_latency::total 48888.621205                       # average overall mshr miss latency
system.cpu.dcache.no_allocate_misses                0                       # Number of misses that were no-allocate

---------- End Simulation Statistics   ----------
