
---------- Begin Simulation Statistics ----------
sim_seconds                                  0.221318                       # Number of seconds simulated
sim_ticks                                221318421000                       # Number of ticks simulated
final_tick                               221320132000                       # Number of ticks from beginning of simulation (restored from checkpoints and never reset)
sim_freq                                 1000000000000                       # Frequency of simulated ticks
host_inst_rate                                  36197                       # Simulator instruction rate (inst/s)
host_op_rate                                    36197                       # Simulator op (including micro ops) rate (op/s)
host_tick_rate                               11610628                       # Simulator tick rate (ticks/s)
host_mem_usage                                 750032                       # Number of bytes of host memory used
host_seconds                                 19061.71                       # Real time elapsed on the host
sim_insts                                   689975686                       # Number of instructions simulated
sim_ops                                     689975686                       # Number of ops (including micro ops) simulated
system.physmem.bytes_read::switch_cpus.inst        34752                       # Number of bytes read from this memory
system.physmem.bytes_read::switch_cpus.data       203712                       # Number of bytes read from this memory
system.physmem.bytes_read::total               238464                       # Number of bytes read from this memory
system.physmem.bytes_inst_read::switch_cpus.inst        34752                       # Number of instructions bytes read from this memory
system.physmem.bytes_inst_read::total           34752                       # Number of instructions bytes read from this memory
system.physmem.bytes_written::writebacks          640                       # Number of bytes written to this memory
system.physmem.bytes_written::total               640                       # Number of bytes written to this memory
system.physmem.num_reads::switch_cpus.inst          543                       # Number of read requests responded to by this memory
system.physmem.num_reads::switch_cpus.data         3183                       # Number of read requests responded to by this memory
system.physmem.num_reads::total                  3726                       # Number of read requests responded to by this memory
system.physmem.num_writes::writebacks              10                       # Number of write requests responded to by this memory
system.physmem.num_writes::total                   10                       # Number of write requests responded to by this memory
system.physmem.bw_read::switch_cpus.inst       157023                       # Total read bandwidth from this memory (bytes/s)
system.physmem.bw_read::switch_cpus.data       920448                       # Total read bandwidth from this memory (bytes/s)
system.physmem.bw_read::total                 1077470                       # Total read bandwidth from this memory (bytes/s)
system.physmem.bw_inst_read::switch_cpus.inst       157023                       # Instruction read bandwidth from this memory (bytes/s)
system.physmem.bw_inst_read::total             157023                       # Instruction read bandwidth from this memory (bytes/s)
system.physmem.bw_write::writebacks              2892                       # Write bandwidth from this memory (bytes/s)
system.physmem.bw_write::total                   2892                       # Write bandwidth from this memory (bytes/s)
system.physmem.bw_total::writebacks              2892                       # Total bandwidth to/from this memory (bytes/s)
system.physmem.bw_total::switch_cpus.inst       157023                       # Total bandwidth to/from this memory (bytes/s)
system.physmem.bw_total::switch_cpus.data       920448                       # Total bandwidth to/from this memory (bytes/s)
system.physmem.bw_total::total                1080362                       # Total bandwidth to/from this memory (bytes/s)
system.physmem.readReqs                          3726                       # Total number of read requests seen
system.physmem.writeReqs                           10                       # Total number of write requests seen
system.physmem.cpureqs                           3736                       # Reqs generatd by CPU via cache - shady
system.physmem.bytesRead                       238464                       # Total number of bytes read from memory
system.physmem.bytesWritten                       640                       # Total number of bytes written to memory
system.physmem.bytesConsumedRd                 238464                       # bytesRead derated as per pkt->getSize()
system.physmem.bytesConsumedWr                    640                       # bytesWritten derated as per pkt->getSize()
system.physmem.servicedByWrQ                        0                       # Number of read reqs serviced by write Q
system.physmem.neitherReadNorWrite                  0                       # Reqs where no action is needed
system.physmem.perBankRdReqs::0                   149                       # Track reads on a per bank basis
system.physmem.perBankRdReqs::1                   140                       # Track reads on a per bank basis
system.physmem.perBankRdReqs::2                   139                       # Track reads on a per bank basis
system.physmem.perBankRdReqs::3                   221                       # Track reads on a per bank basis
system.physmem.perBankRdReqs::4                   401                       # Track reads on a per bank basis
system.physmem.perBankRdReqs::5                   180                       # Track reads on a per bank basis
system.physmem.perBankRdReqs::6                   447                       # Track reads on a per bank basis
system.physmem.perBankRdReqs::7                   505                       # Track reads on a per bank basis
system.physmem.perBankRdReqs::8                   322                       # Track reads on a per bank basis
system.physmem.perBankRdReqs::9                   166                       # Track reads on a per bank basis
system.physmem.perBankRdReqs::10                  309                       # Track reads on a per bank basis
system.physmem.perBankRdReqs::11                  154                       # Track reads on a per bank basis
system.physmem.perBankRdReqs::12                  156                       # Track reads on a per bank basis
system.physmem.perBankRdReqs::13                  148                       # Track reads on a per bank basis
system.physmem.perBankRdReqs::14                  156                       # Track reads on a per bank basis
system.physmem.perBankRdReqs::15                  133                       # Track reads on a per bank basis
system.physmem.perBankWrReqs::0                     1                       # Track writes on a per bank basis
system.physmem.perBankWrReqs::1                     0                       # Track writes on a per bank basis
system.physmem.perBankWrReqs::2                     1                       # Track writes on a per bank basis
system.physmem.perBankWrReqs::3                     0                       # Track writes on a per bank basis
system.physmem.perBankWrReqs::4                     0                       # Track writes on a per bank basis
system.physmem.perBankWrReqs::5                     0                       # Track writes on a per bank basis
system.physmem.perBankWrReqs::6                     1                       # Track writes on a per bank basis
system.physmem.perBankWrReqs::7                     1                       # Track writes on a per bank basis
system.physmem.perBankWrReqs::8                     1                       # Track writes on a per bank basis
system.physmem.perBankWrReqs::9                     0                       # Track writes on a per bank basis
system.physmem.perBankWrReqs::10                    1                       # Track writes on a per bank basis
system.physmem.perBankWrReqs::11                    0                       # Track writes on a per bank basis
system.physmem.perBankWrReqs::12                    1                       # Track writes on a per bank basis
system.physmem.perBankWrReqs::13                    0                       # Track writes on a per bank basis
system.physmem.perBankWrReqs::14                    1                       # Track writes on a per bank basis
system.physmem.perBankWrReqs::15                    2                       # Track writes on a per bank basis
system.physmem.numRdRetry                           0                       # Number of times rd buffer was full causing retry
system.physmem.numWrRetry                           0                       # Number of times wr buffer was full causing retry
system.physmem.totGap                    221318141500                       # Total gap between requests
system.physmem.readPktSize::0                       0                       # Categorize read packet sizes
system.physmem.readPktSize::1                       0                       # Categorize read packet sizes
system.physmem.readPktSize::2                       0                       # Categorize read packet sizes
system.physmem.readPktSize::3                       0                       # Categorize read packet sizes
system.physmem.readPktSize::4                       0                       # Categorize read packet sizes
system.physmem.readPktSize::5                       0                       # Categorize read packet sizes
system.physmem.readPktSize::6                    3726                       # Categorize read packet sizes
system.physmem.writePktSize::0                      0                       # Categorize write packet sizes
system.physmem.writePktSize::1                      0                       # Categorize write packet sizes
system.physmem.writePktSize::2                      0                       # Categorize write packet sizes
system.physmem.writePktSize::3                      0                       # Categorize write packet sizes
system.physmem.writePktSize::4                      0                       # Categorize write packet sizes
system.physmem.writePktSize::5                      0                       # Categorize write packet sizes
system.physmem.writePktSize::6                     10                       # Categorize write packet sizes
system.physmem.rdQLenPdf::0                      2149                       # What read queue length does an incoming req see
system.physmem.rdQLenPdf::1                      1482                       # What read queue length does an incoming req see
system.physmem.rdQLenPdf::2                        87                       # What read queue length does an incoming req see
system.physmem.rdQLenPdf::3                         7                       # What read queue length does an incoming req see
system.physmem.rdQLenPdf::4                         1                       # What read queue length does an incoming req see
system.physmem.rdQLenPdf::5                         0                       # What read queue length does an incoming req see
system.physmem.rdQLenPdf::6                         0                       # What read queue length does an incoming req see
system.physmem.rdQLenPdf::7                         0                       # What read queue length does an incoming req see
system.physmem.rdQLenPdf::8                         0                       # What read queue length does an incoming req see
system.physmem.rdQLenPdf::9                         0                       # What read queue length does an incoming req see
system.physmem.rdQLenPdf::10                        0                       # What read queue length does an incoming req see
system.physmem.rdQLenPdf::11                        0                       # What read queue length does an incoming req see
system.physmem.rdQLenPdf::12                        0                       # What read queue length does an incoming req see
system.physmem.rdQLenPdf::13                        0                       # What read queue length does an incoming req see
system.physmem.rdQLenPdf::14                        0                       # What read queue length does an incoming req see
system.physmem.rdQLenPdf::15                        0                       # What read queue length does an incoming req see
system.physmem.rdQLenPdf::16                        0                       # What read queue length does an incoming req see
system.physmem.rdQLenPdf::17                        0                       # What read queue length does an incoming req see
system.physmem.rdQLenPdf::18                        0                       # What read queue length does an incoming req see
system.physmem.rdQLenPdf::19                        0                       # What read queue length does an incoming req see
system.physmem.rdQLenPdf::20                        0                       # What read queue length does an incoming req see
system.physmem.rdQLenPdf::21                        0                       # What read queue length does an incoming req see
system.physmem.rdQLenPdf::22                        0                       # What read queue length does an incoming req see
system.physmem.rdQLenPdf::23                        0                       # What read queue length does an incoming req see
system.physmem.rdQLenPdf::24                        0                       # What read queue length does an incoming req see
system.physmem.rdQLenPdf::25                        0                       # What read queue length does an incoming req see
system.physmem.rdQLenPdf::26                        0                       # What read queue length does an incoming req see
system.physmem.rdQLenPdf::27                        0                       # What read queue length does an incoming req see
system.physmem.rdQLenPdf::28                        0                       # What read queue length does an incoming req see
system.physmem.rdQLenPdf::29                        0                       # What read queue length does an incoming req see
system.physmem.rdQLenPdf::30                        0                       # What read queue length does an incoming req see
system.physmem.rdQLenPdf::31                        0                       # What read queue length does an incoming req see
system.physmem.wrQLenPdf::0                         1                       # What write queue length does an incoming req see
system.physmem.wrQLenPdf::1                         1                       # What write queue length does an incoming req see
system.physmem.wrQLenPdf::2                         1                       # What write queue length does an incoming req see
system.physmem.wrQLenPdf::3                         1                       # What write queue length does an incoming req see
system.physmem.wrQLenPdf::4                         1                       # What write queue length does an incoming req see
system.physmem.wrQLenPdf::5                         1                       # What write queue length does an incoming req see
system.physmem.wrQLenPdf::6                         1                       # What write queue length does an incoming req see
system.physmem.wrQLenPdf::7                         1                       # What write queue length does an incoming req see
system.physmem.wrQLenPdf::8                         1                       # What write queue length does an incoming req see
system.physmem.wrQLenPdf::9                         1                       # What write queue length does an incoming req see
system.physmem.wrQLenPdf::10                        0                       # What write queue length does an incoming req see
system.physmem.wrQLenPdf::11                        0                       # What write queue length does an incoming req see
system.physmem.wrQLenPdf::12                        0                       # What write queue length does an incoming req see
system.physmem.wrQLenPdf::13                        0                       # What write queue length does an incoming req see
system.physmem.wrQLenPdf::14                        0                       # What write queue length does an incoming req see
system.physmem.wrQLenPdf::15                        0                       # What write queue length does an incoming req see
system.physmem.wrQLenPdf::16                        0                       # What write queue length does an incoming req see
system.physmem.wrQLenPdf::17                        0                       # What write queue length does an incoming req see
system.physmem.wrQLenPdf::18                        0                       # What write queue length does an incoming req see
system.physmem.wrQLenPdf::19                        0                       # What write queue length does an incoming req see
system.physmem.wrQLenPdf::20                        0                       # What write queue length does an incoming req see
system.physmem.wrQLenPdf::21                        0                       # What write queue length does an incoming req see
system.physmem.wrQLenPdf::22                        0                       # What write queue length does an incoming req see
system.physmem.wrQLenPdf::23                        0                       # What write queue length does an incoming req see
system.physmem.wrQLenPdf::24                        0                       # What write queue length does an incoming req see
system.physmem.wrQLenPdf::25                        0                       # What write queue length does an incoming req see
system.physmem.wrQLenPdf::26                        0                       # What write queue length does an incoming req see
system.physmem.wrQLenPdf::27                        0                       # What write queue length does an incoming req see
system.physmem.wrQLenPdf::28                        0                       # What write queue length does an incoming req see
system.physmem.wrQLenPdf::29                        0                       # What write queue length does an incoming req see
system.physmem.wrQLenPdf::30                        0                       # What write queue length does an incoming req see
system.physmem.wrQLenPdf::31                        0                       # What write queue length does an incoming req see
system.physmem.bytesPerActivate::samples          166                       # Bytes accessed per row activation
system.physmem.bytesPerActivate::mean     1358.265060                       # Bytes accessed per row activation
system.physmem.bytesPerActivate::gmean     247.962356                       # Bytes accessed per row activation
system.physmem.bytesPerActivate::stdev    2662.494884                       # Bytes accessed per row activation
system.physmem.bytesPerActivate::64-65             83     50.00%     50.00% # Bytes accessed per row activation
system.physmem.bytesPerActivate::128-129           10      6.02%     56.02% # Bytes accessed per row activation
system.physmem.bytesPerActivate::192-193            6      3.61%     59.64% # Bytes accessed per row activation
system.physmem.bytesPerActivate::256-257            8      4.82%     64.46% # Bytes accessed per row activation
system.physmem.bytesPerActivate::320-321            4      2.41%     66.87% # Bytes accessed per row activation
system.physmem.bytesPerActivate::384-385            6      3.61%     70.48% # Bytes accessed per row activation
system.physmem.bytesPerActivate::512-513            3      1.81%     72.29% # Bytes accessed per row activation
system.physmem.bytesPerActivate::576-577            3      1.81%     74.10% # Bytes accessed per row activation
system.physmem.bytesPerActivate::640-641            3      1.81%     75.90% # Bytes accessed per row activation
system.physmem.bytesPerActivate::768-769            1      0.60%     76.51% # Bytes accessed per row activation
system.physmem.bytesPerActivate::832-833            4      2.41%     78.92% # Bytes accessed per row activation
system.physmem.bytesPerActivate::896-897            1      0.60%     79.52% # Bytes accessed per row activation
system.physmem.bytesPerActivate::960-961            1      0.60%     80.12% # Bytes accessed per row activation
system.physmem.bytesPerActivate::1024-1025            1      0.60%     80.72% # Bytes accessed per row activation
system.physmem.bytesPerActivate::1472-1473            1      0.60%     81.33% # Bytes accessed per row activation
system.physmem.bytesPerActivate::2112-2113            2      1.20%     82.53% # Bytes accessed per row activation
system.physmem.bytesPerActivate::2368-2369            3      1.81%     84.34% # Bytes accessed per row activation
system.physmem.bytesPerActivate::2432-2433            1      0.60%     84.94% # Bytes accessed per row activation
system.physmem.bytesPerActivate::3008-3009            1      0.60%     85.54% # Bytes accessed per row activation
system.physmem.bytesPerActivate::3072-3073            1      0.60%     86.14% # Bytes accessed per row activation
system.physmem.bytesPerActivate::4480-4481            1      0.60%     86.75% # Bytes accessed per row activation
system.physmem.bytesPerActivate::5184-5185            1      0.60%     87.35% # Bytes accessed per row activation
system.physmem.bytesPerActivate::5824-5825            1      0.60%     87.95% # Bytes accessed per row activation
system.physmem.bytesPerActivate::7552-7553            1      0.60%     88.55% # Bytes accessed per row activation
system.physmem.bytesPerActivate::8128-8129            1      0.60%     89.16% # Bytes accessed per row activation
system.physmem.bytesPerActivate::8192-8193           18     10.84%    100.00% # Bytes accessed per row activation
system.physmem.bytesPerActivate::total            166                       # Bytes accessed per row activation
system.physmem.totQLat                        8280000                       # Total cycles spent in queuing delays
system.physmem.totMemAccLat                  80095000                       # Sum of mem lat for all requests
system.physmem.totBusLat                     18630000                       # Total cycles spent in databus access
system.physmem.totBankLat                    53185000                       # Total cycles spent in bank access
system.physmem.avgQLat                        2222.22                       # Average queueing delay per request
system.physmem.avgBankLat                    14274.02                       # Average bank access latency per request
system.physmem.avgBusLat                      5000.00                       # Average bus latency per request
system.physmem.avgMemAccLat                  21496.24                       # Average memory access latency
system.physmem.avgRdBW                           1.08                       # Average achieved read bandwidth in MB/s
system.physmem.avgWrBW                           0.00                       # Average achieved write bandwidth in MB/s
system.physmem.avgConsumedRdBW                   1.08                       # Average consumed read bandwidth in MB/s
system.physmem.avgConsumedWrBW                   0.00                       # Average consumed write bandwidth in MB/s
system.physmem.peakBW                        12800.00                       # Theoretical peak bandwidth in MB/s
system.physmem.busUtil                           0.01                       # Data bus utilization in percentage
system.physmem.avgRdQLen                         0.00                       # Average read queue length over time
system.physmem.avgWrQLen                         8.99                       # Average write queue length over time
system.physmem.readRowHits                       3560                       # Number of row buffer hits during reads
system.physmem.writeRowHits                         0                       # Number of row buffer hits during writes
system.physmem.readRowHitRate                   95.54                       # Row buffer hit rate for reads
system.physmem.writeRowHitRate                   0.00                       # Row buffer hit rate for writes
system.physmem.avgGap                     59239331.24                       # Average gap between requests
system.membus.throughput                      1080362                       # Throughput (bytes/s)
system.membus.trans_dist::ReadReq                1935                       # Transaction distribution
system.membus.trans_dist::ReadResp               1935                       # Transaction distribution
system.membus.trans_dist::Writeback                10                       # Transaction distribution
system.membus.trans_dist::ReadExReq              1791                       # Transaction distribution
system.membus.trans_dist::ReadExResp             1791                       # Transaction distribution
system.membus.pkt_count_system.l2.mem_side         7462                       # Packet count per connected master and slave (bytes)
system.membus.pkt_count                          7462                       # Packet count per connected master and slave (bytes)
system.membus.tot_pkt_size_system.l2.mem_side       239104                       # Cumulative packet size per connected master and slave (bytes)
system.membus.tot_pkt_size                     239104                       # Cumulative packet size per connected master and slave (bytes)
system.membus.data_through_bus                 239104                       # Total data (bytes)
system.membus.snoop_data_through_bus                0                       # Total snoop data (bytes)
system.membus.reqLayer0.occupancy             1908000                       # Layer occupancy (ticks)
system.membus.reqLayer0.utilization               0.0                       # Layer utilization (%)
system.membus.respLayer1.occupancy           17689500                       # Layer occupancy (ticks)
system.membus.respLayer1.utilization              0.0                       # Layer utilization (%)
system.switch_cpus.branchPred.lookups        23399443                       # Number of BP lookups
system.switch_cpus.branchPred.condPredicted     21881604                       # Number of conditional branches predicted
system.switch_cpus.branchPred.condIncorrect      1267631                       # Number of conditional branches incorrect
system.switch_cpus.branchPred.BTBLookups     23312028                       # Number of BTB lookups
system.switch_cpus.branchPred.BTBHits        23224157                       # Number of BTB hits
system.switch_cpus.branchPred.BTBCorrect            0                       # Number of correct BTB predictions (this stat may not work properly.
system.switch_cpus.branchPred.BTBHitPct     99.623066                       # BTB Hit Percentage
system.switch_cpus.branchPred.usedRAS           82275                       # Number of times the RAS was used to get a target.
system.switch_cpus.branchPred.RASInCorrect           79                       # Number of incorrect RAS predictions.
system.switch_cpus.dtb.fetch_hits                   0                       # ITB hits
system.switch_cpus.dtb.fetch_misses                 0                       # ITB misses
system.switch_cpus.dtb.fetch_acv                    0                       # ITB acv
system.switch_cpus.dtb.fetch_accesses               0                       # ITB accesses
system.switch_cpus.dtb.read_hits            332038848                       # DTB read hits
system.switch_cpus.dtb.read_misses                201                       # DTB read misses
system.switch_cpus.dtb.read_acv                     0                       # DTB read access violations
system.switch_cpus.dtb.read_accesses        332039049                       # DTB read accesses
system.switch_cpus.dtb.write_hits           133098094                       # DTB write hits
system.switch_cpus.dtb.write_misses              1415                       # DTB write misses
system.switch_cpus.dtb.write_acv                    0                       # DTB write access violations
system.switch_cpus.dtb.write_accesses       133099509                       # DTB write accesses
system.switch_cpus.dtb.data_hits            465136942                       # DTB hits
system.switch_cpus.dtb.data_misses               1616                       # DTB misses
system.switch_cpus.dtb.data_acv                     0                       # DTB access violations
system.switch_cpus.dtb.data_accesses        465138558                       # DTB accesses
system.switch_cpus.itb.fetch_hits            65685053                       # ITB hits
system.switch_cpus.itb.fetch_misses               128                       # ITB misses
system.switch_cpus.itb.fetch_acv                    0                       # ITB acv
system.switch_cpus.itb.fetch_accesses        65685181                       # ITB accesses
system.switch_cpus.itb.read_hits                    0                       # DTB read hits
system.switch_cpus.itb.read_misses                  0                       # DTB read misses
system.switch_cpus.itb.read_acv                     0                       # DTB read access violations
system.switch_cpus.itb.read_accesses                0                       # DTB read accesses
system.switch_cpus.itb.write_hits                   0                       # DTB write hits
system.switch_cpus.itb.write_misses                 0                       # DTB write misses
system.switch_cpus.itb.write_acv                    0                       # DTB write access violations
system.switch_cpus.itb.write_accesses               0                       # DTB write accesses
system.switch_cpus.itb.data_hits                    0                       # DTB hits
system.switch_cpus.itb.data_misses                  0                       # DTB misses
system.switch_cpus.itb.data_acv                     0                       # DTB access violations
system.switch_cpus.itb.data_accesses                0                       # DTB accesses
system.cpu.workload.num_syscalls                   18                       # Number of system calls
system.switch_cpus.numCycles                442636842                       # number of cpu cycles simulated
system.switch_cpus.numWorkItemsStarted              0                       # number of work items this cpu started
system.switch_cpus.numWorkItemsCompleted            0                       # number of work items this cpu completed
system.switch_cpus.fetch.icacheStallCycles     65786141                       # Number of cycles fetch is stalled on an Icache miss
system.switch_cpus.fetch.Insts              775089076                       # Number of instructions fetch has processed
system.switch_cpus.fetch.Branches            23399443                       # Number of branches that fetch encountered
system.switch_cpus.fetch.predictedBranches     23306432                       # Number of branches that fetch has predicted taken
system.switch_cpus.fetch.Cycles             107735120                       # Number of cycles fetch has run and was not squashing or blocked
system.switch_cpus.fetch.SquashCycles         9991873                       # Number of cycles fetch has spent squashing
system.switch_cpus.fetch.BlockedCycles      260327976                       # Number of cycles fetch has spent blocked
system.switch_cpus.fetch.MiscStallCycles           85                       # Number of cycles fetch has spent waiting on interrupts, or bad addresses, or out of MSHRs
system.switch_cpus.fetch.PendingTrapStallCycles         3373                       # Number of stall cycles due to pending traps
system.switch_cpus.fetch.IcacheWaitRetryStallCycles           17                       # Number of stall cycles due to full MSHR
system.switch_cpus.fetch.CacheLines          65685053                       # Number of cache lines fetched
system.switch_cpus.fetch.IcacheSquashes          8959                       # Number of outstanding Icache misses that were squashed
system.switch_cpus.fetch.rateDist::samples    442554968                       # Number of instructions fetched each cycle (Total)
system.switch_cpus.fetch.rateDist::mean      1.751396                       # Number of instructions fetched each cycle (Total)
system.switch_cpus.fetch.rateDist::stdev     3.153866                       # Number of instructions fetched each cycle (Total)
system.switch_cpus.fetch.rateDist::underflows            0      0.00%      0.00% # Number of instructions fetched each cycle (Total)
system.switch_cpus.fetch.rateDist::0        334819848     75.66%     75.66% # Number of instructions fetched each cycle (Total)
system.switch_cpus.fetch.rateDist::1          1351565      0.31%     75.96% # Number of instructions fetched each cycle (Total)
system.switch_cpus.fetch.rateDist::2          1284553      0.29%     76.25% # Number of instructions fetched each cycle (Total)
system.switch_cpus.fetch.rateDist::3            12357      0.00%     76.25% # Number of instructions fetched each cycle (Total)
system.switch_cpus.fetch.rateDist::4          2626565      0.59%     76.85% # Number of instructions fetched each cycle (Total)
system.switch_cpus.fetch.rateDist::5           164015      0.04%     76.89% # Number of instructions fetched each cycle (Total)
system.switch_cpus.fetch.rateDist::6         19152280      4.33%     81.21% # Number of instructions fetched each cycle (Total)
system.switch_cpus.fetch.rateDist::7         20258961      4.58%     85.79% # Number of instructions fetched each cycle (Total)
system.switch_cpus.fetch.rateDist::8         62884824     14.21%    100.00% # Number of instructions fetched each cycle (Total)
system.switch_cpus.fetch.rateDist::overflows            0      0.00%    100.00% # Number of instructions fetched each cycle (Total)
system.switch_cpus.fetch.rateDist::min_value            0                       # Number of instructions fetched each cycle (Total)
system.switch_cpus.fetch.rateDist::max_value            8                       # Number of instructions fetched each cycle (Total)
system.switch_cpus.fetch.rateDist::total    442554968                       # Number of instructions fetched each cycle (Total)
system.switch_cpus.fetch.branchRate          0.052864                       # Number of branch fetches per cycle
system.switch_cpus.fetch.rate                1.751072                       # Number of inst fetches per cycle
system.switch_cpus.decode.IdleCycles        102972460                       # Number of cycles decode is idle
system.switch_cpus.decode.BlockedCycles     224338756                       # Number of cycles decode is blocked
system.switch_cpus.decode.RunCycles          40559297                       # Number of cycles decode is running
system.switch_cpus.decode.UnblockCycles      65982511                       # Number of cycles decode is unblocking
system.switch_cpus.decode.SquashCycles        8701943                       # Number of cycles decode is squashing
system.switch_cpus.decode.BranchResolved      1435219                       # Number of times decode resolved a branch
system.switch_cpus.decode.BranchMispred           331                       # Number of times decode detected a branch misprediction
system.switch_cpus.decode.DecodedInsts      765551108                       # Number of instructions handled by decode
system.switch_cpus.decode.SquashedInsts          1011                       # Number of squashed instructions handled by decode
system.switch_cpus.rename.SquashCycles        8701943                       # Number of cycles rename is squashing
system.switch_cpus.rename.IdleCycles        106550649                       # Number of cycles rename is idle
system.switch_cpus.rename.BlockCycles        37030985                       # Number of cycles rename is blocking
system.switch_cpus.rename.serializeStallCycles      4817951                       # count of cycles rename stalled for serializing inst
system.switch_cpus.rename.RunCycles         103069135                       # Number of cycles rename is running
system.switch_cpus.rename.UnblockCycles     182384304                       # Number of cycles rename is unblocking
system.switch_cpus.rename.RenamedInsts      760138892                       # Number of instructions processed by rename
system.switch_cpus.rename.ROBFullEvents            20                       # Number of times rename has blocked due to ROB full
system.switch_cpus.rename.IQFullEvents          11614                       # Number of times rename has blocked due to IQ full
system.switch_cpus.rename.LSQFullEvents     181054960                       # Number of times rename has blocked due to LSQ full
system.switch_cpus.rename.RenamedOperands    593517196                       # Number of destination operands rename has renamed
system.switch_cpus.rename.RenameLookups    1085642222                       # Number of register rename lookups that rename has made
system.switch_cpus.rename.int_rename_lookups   1084032865                       # Number of integer rename lookups
system.switch_cpus.rename.fp_rename_lookups      1609357                       # Number of floating rename lookups
system.switch_cpus.rename.CommittedMaps     538515502                       # Number of HB maps that are committed
system.switch_cpus.rename.UndoneMaps         55001694                       # Number of HB maps that are undone due to squashing
system.switch_cpus.rename.serializingInsts       317993                       # count of serializing insts renamed
system.switch_cpus.rename.tempSerializingInsts          135                       # count of temporary serializing insts renamed
system.switch_cpus.rename.skidInsts         300841870                       # count of insts added to the skid buffer
system.switch_cpus.memDep0.insertedLoads    346837480                       # Number of loads inserted to the mem dependence unit.
system.switch_cpus.memDep0.insertedStores    141867012                       # Number of stores inserted to the mem dependence unit.
system.switch_cpus.memDep0.conflictingLoads    193414706                       # Number of conflicting loads.
system.switch_cpus.memDep0.conflictingStores     95379978                       # Number of conflicting stores.
system.switch_cpus.iq.iqInstsAdded          756994394                       # Number of instructions added to the IQ (excludes non-spec)
system.switch_cpus.iq.iqNonSpecInstsAdded          227                       # Number of non-speculative instructions added to the IQ
system.switch_cpus.iq.iqInstsIssued         721084331                       # Number of instructions issued
system.switch_cpus.iq.iqSquashedInstsIssued         2758                       # Number of squashed instructions issued
system.switch_cpus.iq.iqSquashedInstsExamined     67019286                       # Number of squashed instructions iterated over during squash; mainly for profiling
system.switch_cpus.iq.iqSquashedOperandsExamined     58689578                       # Number of squashed operands that are examined and possibly removed from graph
system.switch_cpus.iq.iqSquashedNonSpecRemoved           50                       # Number of squashed non-spec instructions that were removed
system.switch_cpus.iq.issued_per_cycle::samples    442554968                       # Number of insts issued each cycle
system.switch_cpus.iq.issued_per_cycle::mean     1.629367                       # Number of insts issued each cycle
system.switch_cpus.iq.issued_per_cycle::stdev     1.235998                       # Number of insts issued each cycle
system.switch_cpus.iq.issued_per_cycle::underflows            0      0.00%      0.00% # Number of insts issued each cycle
system.switch_cpus.iq.issued_per_cycle::0     92713656     20.95%     20.95% # Number of insts issued each cycle
system.switch_cpus.iq.issued_per_cycle::1    123270878     27.85%     48.80% # Number of insts issued each cycle
system.switch_cpus.iq.issued_per_cycle::2    127814698     28.88%     77.69% # Number of insts issued each cycle
system.switch_cpus.iq.issued_per_cycle::3     55682438     12.58%     90.27% # Number of insts issued each cycle
system.switch_cpus.iq.issued_per_cycle::4     40418989      9.13%     99.40% # Number of insts issued each cycle
system.switch_cpus.iq.issued_per_cycle::5      2553820      0.58%     99.98% # Number of insts issued each cycle
system.switch_cpus.iq.issued_per_cycle::6        14641      0.00%     99.98% # Number of insts issued each cycle
system.switch_cpus.iq.issued_per_cycle::7        82943      0.02%    100.00% # Number of insts issued each cycle
system.switch_cpus.iq.issued_per_cycle::8         2905      0.00%    100.00% # Number of insts issued each cycle
system.switch_cpus.iq.issued_per_cycle::overflows            0      0.00%    100.00% # Number of insts issued each cycle
system.switch_cpus.iq.issued_per_cycle::min_value            0                       # Number of insts issued each cycle
system.switch_cpus.iq.issued_per_cycle::max_value            8                       # Number of insts issued each cycle
system.switch_cpus.iq.issued_per_cycle::total    442554968                       # Number of insts issued each cycle
system.switch_cpus.iq.fu_full::No_OpClass            0      0.00%      0.00% # attempts to use FU when none available
system.switch_cpus.iq.fu_full::IntAlu            4284      0.37%      0.37% # attempts to use FU when none available
system.switch_cpus.iq.fu_full::IntMult              0      0.00%      0.37% # attempts to use FU when none available
system.switch_cpus.iq.fu_full::IntDiv               0      0.00%      0.37% # attempts to use FU when none available
system.switch_cpus.iq.fu_full::FloatAdd             0      0.00%      0.37% # attempts to use FU when none available
system.switch_cpus.iq.fu_full::FloatCmp             0      0.00%      0.37% # attempts to use FU when none available
system.switch_cpus.iq.fu_full::FloatCvt             0      0.00%      0.37% # attempts to use FU when none available
system.switch_cpus.iq.fu_full::FloatMult          200      0.02%      0.39% # attempts to use FU when none available
system.switch_cpus.iq.fu_full::FloatDiv             6      0.00%      0.39% # attempts to use FU when none available
system.switch_cpus.iq.fu_full::FloatSqrt            0      0.00%      0.39% # attempts to use FU when none available
system.switch_cpus.iq.fu_full::SimdAdd              0      0.00%      0.39% # attempts to use FU when none available
system.switch_cpus.iq.fu_full::SimdAddAcc            0      0.00%      0.39% # attempts to use FU when none available
system.switch_cpus.iq.fu_full::SimdAlu              0      0.00%      0.39% # attempts to use FU when none available
system.switch_cpus.iq.fu_full::SimdCmp              0      0.00%      0.39% # attempts to use FU when none available
system.switch_cpus.iq.fu_full::SimdCvt              0      0.00%      0.39% # attempts to use FU when none available
system.switch_cpus.iq.fu_full::SimdMisc             0      0.00%      0.39% # attempts to use FU when none available
system.switch_cpus.iq.fu_full::SimdMult             0      0.00%      0.39% # attempts to use FU when none available
system.switch_cpus.iq.fu_full::SimdMultAcc            0      0.00%      0.39% # attempts to use FU when none available
system.switch_cpus.iq.fu_full::SimdShift            0      0.00%      0.39% # attempts to use FU when none available
system.switch_cpus.iq.fu_full::SimdShiftAcc            0      0.00%      0.39% # attempts to use FU when none available
system.switch_cpus.iq.fu_full::SimdSqrt             0      0.00%      0.39% # attempts to use FU when none available
system.switch_cpus.iq.fu_full::SimdFloatAdd            0      0.00%      0.39% # attempts to use FU when none available
system.switch_cpus.iq.fu_full::SimdFloatAlu            0      0.00%      0.39% # attempts to use FU when none available
system.switch_cpus.iq.fu_full::SimdFloatCmp            0      0.00%      0.39% # attempts to use FU when none available
system.switch_cpus.iq.fu_full::SimdFloatCvt            0      0.00%      0.39% # attempts to use FU when none available
system.switch_cpus.iq.fu_full::SimdFloatDiv            0      0.00%      0.39% # attempts to use FU when none available
system.switch_cpus.iq.fu_full::SimdFloatMisc            0      0.00%      0.39% # attempts to use FU when none available
system.switch_cpus.iq.fu_full::SimdFloatMult            0      0.00%      0.39% # attempts to use FU when none available
system.switch_cpus.iq.fu_full::SimdFloatMultAcc            0      0.00%      0.39% # attempts to use FU when none available
system.switch_cpus.iq.fu_full::SimdFloatSqrt            0      0.00%      0.39% # attempts to use FU when none available
system.switch_cpus.iq.fu_full::MemRead          86915      7.54%      7.93% # attempts to use FU when none available
system.switch_cpus.iq.fu_full::MemWrite       1061622     92.07%    100.00% # attempts to use FU when none available
system.switch_cpus.iq.fu_full::IprAccess            0      0.00%    100.00% # attempts to use FU when none available
system.switch_cpus.iq.fu_full::InstPrefetch            0      0.00%    100.00% # attempts to use FU when none available
system.switch_cpus.iq.FU_type_0::No_OpClass       158019      0.02%      0.02% # Type of FU issued
system.switch_cpus.iq.FU_type_0::IntAlu     216676041     30.05%     30.07% # Type of FU issued
system.switch_cpus.iq.FU_type_0::IntMult     35743185      4.96%     35.03% # Type of FU issued
system.switch_cpus.iq.FU_type_0::IntDiv             0      0.00%     35.03% # Type of FU issued
system.switch_cpus.iq.FU_type_0::FloatAdd       421049      0.06%     35.09% # Type of FU issued
system.switch_cpus.iq.FU_type_0::FloatCmp         2221      0.00%     35.09% # Type of FU issued
system.switch_cpus.iq.FU_type_0::FloatCvt       242755      0.03%     35.12% # Type of FU issued
system.switch_cpus.iq.FU_type_0::FloatMult        11610      0.00%     35.12% # Type of FU issued
system.switch_cpus.iq.FU_type_0::FloatDiv        79754      0.01%     35.13% # Type of FU issued
system.switch_cpus.iq.FU_type_0::FloatSqrt            0      0.00%     35.13% # Type of FU issued
system.switch_cpus.iq.FU_type_0::SimdAdd            0      0.00%     35.13% # Type of FU issued
system.switch_cpus.iq.FU_type_0::SimdAddAcc            0      0.00%     35.13% # Type of FU issued
system.switch_cpus.iq.FU_type_0::SimdAlu            0      0.00%     35.13% # Type of FU issued
system.switch_cpus.iq.FU_type_0::SimdCmp            0      0.00%     35.13% # Type of FU issued
system.switch_cpus.iq.FU_type_0::SimdCvt            0      0.00%     35.13% # Type of FU issued
system.switch_cpus.iq.FU_type_0::SimdMisc            0      0.00%     35.13% # Type of FU issued
system.switch_cpus.iq.FU_type_0::SimdMult            0      0.00%     35.13% # Type of FU issued
system.switch_cpus.iq.FU_type_0::SimdMultAcc            0      0.00%     35.13% # Type of FU issued
system.switch_cpus.iq.FU_type_0::SimdShift            0      0.00%     35.13% # Type of FU issued
system.switch_cpus.iq.FU_type_0::SimdShiftAcc            0      0.00%     35.13% # Type of FU issued
system.switch_cpus.iq.FU_type_0::SimdSqrt            0      0.00%     35.13% # Type of FU issued
system.switch_cpus.iq.FU_type_0::SimdFloatAdd            0      0.00%     35.13% # Type of FU issued
system.switch_cpus.iq.FU_type_0::SimdFloatAlu            0      0.00%     35.13% # Type of FU issued
system.switch_cpus.iq.FU_type_0::SimdFloatCmp            0      0.00%     35.13% # Type of FU issued
system.switch_cpus.iq.FU_type_0::SimdFloatCvt            0      0.00%     35.13% # Type of FU issued
system.switch_cpus.iq.FU_type_0::SimdFloatDiv            0      0.00%     35.13% # Type of FU issued
system.switch_cpus.iq.FU_type_0::SimdFloatMisc            0      0.00%     35.13% # Type of FU issued
system.switch_cpus.iq.FU_type_0::SimdFloatMult            0      0.00%     35.13% # Type of FU issued
system.switch_cpus.iq.FU_type_0::SimdFloatMultAcc            0      0.00%     35.13% # Type of FU issued
system.switch_cpus.iq.FU_type_0::SimdFloatSqrt            0      0.00%     35.13% # Type of FU issued
system.switch_cpus.iq.FU_type_0::MemRead    334566370     46.40%     81.53% # Type of FU issued
system.switch_cpus.iq.FU_type_0::MemWrite    133183327     18.47%    100.00% # Type of FU issued
system.switch_cpus.iq.FU_type_0::IprAccess            0      0.00%    100.00% # Type of FU issued
system.switch_cpus.iq.FU_type_0::InstPrefetch            0      0.00%    100.00% # Type of FU issued
system.switch_cpus.iq.FU_type_0::total      721084331                       # Type of FU issued
system.switch_cpus.iq.rate                   1.629065                       # Inst issue rate
system.switch_cpus.iq.fu_busy_cnt             1153027                       # FU busy when requested
system.switch_cpus.iq.fu_busy_rate           0.001599                       # FU busy rate (busy events/executed inst)
system.switch_cpus.iq.int_inst_queue_reads   1883377729                       # Number of integer instruction queue reads
system.switch_cpus.iq.int_inst_queue_writes    822782503                       # Number of integer instruction queue writes
system.switch_cpus.iq.int_inst_queue_wakeup_accesses    717007442                       # Number of integer instruction queue wakeup accesses
system.switch_cpus.iq.fp_inst_queue_reads      2501686                       # Number of floating instruction queue reads
system.switch_cpus.iq.fp_inst_queue_writes      1253765                       # Number of floating instruction queue writes
system.switch_cpus.iq.fp_inst_queue_wakeup_accesses      1250635                       # Number of floating instruction queue wakeup accesses
system.switch_cpus.iq.int_alu_accesses      720828392                       # Number of integer alu accesses
system.switch_cpus.iq.fp_alu_accesses         1250947                       # Number of floating point alu accesses
system.switch_cpus.iew.lsq.thread0.forwLoads    132505618                       # Number of loads that had data forwarded from stores
system.switch_cpus.iew.lsq.thread0.invAddrLoads            0                       # Number of loads ignored due to an invalid address
system.switch_cpus.iew.lsq.thread0.squashedLoads     32146655                       # Number of loads squashed
system.switch_cpus.iew.lsq.thread0.ignoredResponses         1131                       # Number of memory responses ignored because the instruction is squashed
system.switch_cpus.iew.lsq.thread0.memOrderViolation        22591                       # Number of memory ordering violations
system.switch_cpus.iew.lsq.thread0.squashedStores     12419355                       # Number of stores squashed
system.switch_cpus.iew.lsq.thread0.invAddrSwpfs            0                       # Number of software prefetches ignored due to an invalid address
system.switch_cpus.iew.lsq.thread0.blockedLoads            0                       # Number of blocked loads due to partial load-store forwarding
system.switch_cpus.iew.lsq.thread0.rescheduledLoads            1                       # Number of loads that were rescheduled
system.switch_cpus.iew.lsq.thread0.cacheBlocked         1096                       # Number of times an access to memory failed due to the cache being blocked
system.switch_cpus.iew.iewIdleCycles                0                       # Number of cycles IEW is idle
system.switch_cpus.iew.iewSquashCycles        8701943                       # Number of cycles IEW is squashing
system.switch_cpus.iew.iewBlockCycles         1987027                       # Number of cycles IEW is blocking
system.switch_cpus.iew.iewUnblockCycles        363799                       # Number of cycles IEW is unblocking
system.switch_cpus.iew.iewDispatchedInsts    757086086                       # Number of instructions dispatched to IQ
system.switch_cpus.iew.iewDispSquashedInsts         3148                       # Number of squashed instructions skipped by dispatch
system.switch_cpus.iew.iewDispLoadInsts     346837480                       # Number of dispatched load instructions
system.switch_cpus.iew.iewDispStoreInsts    141867012                       # Number of dispatched store instructions
system.switch_cpus.iew.iewDispNonSpecInsts          138                       # Number of dispatched non-speculative instructions
system.switch_cpus.iew.iewIQFullEvents           2190                       # Number of times the IQ has become full, causing a stall
system.switch_cpus.iew.iewLSQFullEvents        276907                       # Number of times the LSQ has become full, causing a stall
system.switch_cpus.iew.memOrderViolationEvents        22591                       # Number of memory order violations
system.switch_cpus.iew.predictedTakenIncorrect      1266109                       # Number of branches that were predicted taken incorrectly
system.switch_cpus.iew.predictedNotTakenIncorrect         1446                       # Number of branches that were predicted not taken incorrectly
system.switch_cpus.iew.branchMispredicts      1267555                       # Number of branch mispredicts detected at execute
system.switch_cpus.iew.iewExecutedInsts     718462090                       # Number of executed instructions
system.switch_cpus.iew.iewExecLoadInsts     332039053                       # Number of load instructions executed
system.switch_cpus.iew.iewExecSquashedInsts      2622241                       # Number of squashed instructions skipped in execute
system.switch_cpus.iew.exec_swp                     0                       # number of swp insts executed
system.switch_cpus.iew.exec_nop                 91465                       # number of nop insts executed
system.switch_cpus.iew.exec_refs            465138562                       # number of memory reference insts executed
system.switch_cpus.iew.exec_branches         22023726                       # Number of branches executed
system.switch_cpus.iew.exec_stores          133099509                       # Number of stores executed
system.switch_cpus.iew.exec_rate             1.623141                       # Inst execution rate
system.switch_cpus.iew.wb_sent              718270364                       # cumulative count of insts sent to commit
system.switch_cpus.iew.wb_count             718258077                       # cumulative count of insts written-back
system.switch_cpus.iew.wb_producers         546676500                       # num instructions producing a value
system.switch_cpus.iew.wb_consumers         547002975                       # num instructions consuming a value
system.switch_cpus.iew.wb_penalized                 0                       # number of instrctions required to write to 'other' IQ
system.switch_cpus.iew.wb_rate               1.622680                       # insts written-back per cycle
system.switch_cpus.iew.wb_fanout             0.999403                       # average fanout of values written-back
system.switch_cpus.iew.wb_penalized_rate            0                       # fraction of instructions written-back that wrote to 'other' IQ
system.switch_cpus.commit.commitSquashedInsts     67024227                       # The number of squashed insts skipped by commit
system.switch_cpus.commit.commitNonSpecStalls          177                       # The number of times commit has been forced to stall to communicate backwards
system.switch_cpus.commit.branchMispredicts      1267318                       # The number of times a branch was mispredicted
system.switch_cpus.commit.committed_per_cycle::samples    433853025                       # Number of insts commited each cycle
system.switch_cpus.commit.committed_per_cycle::mean     1.590542                       # Number of insts commited each cycle
system.switch_cpus.commit.committed_per_cycle::stdev     2.311170                       # Number of insts commited each cycle
system.switch_cpus.commit.committed_per_cycle::underflows            0      0.00%      0.00% # Number of insts commited each cycle
system.switch_cpus.commit.committed_per_cycle::0    181215623     41.77%     41.77% # Number of insts commited each cycle
system.switch_cpus.commit.committed_per_cycle::1    138070708     31.82%     73.59% # Number of insts commited each cycle
system.switch_cpus.commit.committed_per_cycle::2     40299314      9.29%     82.88% # Number of insts commited each cycle
system.switch_cpus.commit.committed_per_cycle::3      2737523      0.63%     83.51% # Number of insts commited each cycle
system.switch_cpus.commit.committed_per_cycle::4        12669      0.00%     83.52% # Number of insts commited each cycle
system.switch_cpus.commit.committed_per_cycle::5     18902575      4.36%     87.87% # Number of insts commited each cycle
system.switch_cpus.commit.committed_per_cycle::6     17754191      4.09%     91.96% # Number of insts commited each cycle
system.switch_cpus.commit.committed_per_cycle::7     16792729      3.87%     95.84% # Number of insts commited each cycle
system.switch_cpus.commit.committed_per_cycle::8     18067693      4.16%    100.00% # Number of insts commited each cycle
system.switch_cpus.commit.committed_per_cycle::overflows            0      0.00%    100.00% # Number of insts commited each cycle
system.switch_cpus.commit.committed_per_cycle::min_value            0                       # Number of insts commited each cycle
system.switch_cpus.commit.committed_per_cycle::max_value            8                       # Number of insts commited each cycle
system.switch_cpus.commit.committed_per_cycle::total    433853025                       # Number of insts commited each cycle
system.switch_cpus.commit.committedInsts    690061249                       # Number of instructions committed
system.switch_cpus.commit.committedOps      690061249                       # Number of ops (including micro ops) committed
system.switch_cpus.commit.swp_count                 0                       # Number of s/w prefetches committed
system.switch_cpus.commit.refs              444138482                       # Number of memory references committed
system.switch_cpus.commit.loads             314690825                       # Number of loads committed
system.switch_cpus.commit.membars                  77                       # Number of memory barriers committed
system.switch_cpus.commit.branches           21932776                       # Number of branches committed
system.switch_cpus.commit.fp_insts            1249005                       # Number of committed floating point instructions.
system.switch_cpus.commit.int_insts         688033315                       # Number of committed integer instructions.
system.switch_cpus.commit.function_calls        81680                       # Number of function calls committed.
system.switch_cpus.commit.bw_lim_events      18067693                       # number cycles where commit BW limit reached
system.switch_cpus.commit.bw_limited                0                       # number of insts not committed due to BW limits
system.switch_cpus.rob.rob_reads           1172869300                       # The number of ROB reads
system.switch_cpus.rob.rob_writes          1522873719                       # The number of ROB writes
system.switch_cpus.timesIdled                   32857                       # Number of times that the entire CPU went into an idle state and unscheduled itself
system.switch_cpus.idleCycles                   81874                       # Total number of cycles that the CPU has spent unscheduled due to idling
system.switch_cpus.committedInsts           689972295                       # Number of Instructions Simulated
system.switch_cpus.committedOps             689972295                       # Number of Ops (including micro ops) Simulated
system.switch_cpus.committedInsts_total     689972295                       # Number of Instructions Simulated
system.switch_cpus.cpi                       0.641528                       # CPI: Cycles Per Instruction
system.switch_cpus.cpi_total                 0.641528                       # CPI: Total CPI of All Threads
system.switch_cpus.ipc                       1.558777                       # IPC: Instructions Per Cycle
system.switch_cpus.ipc_total                 1.558777                       # IPC: Total IPC of All Threads
system.switch_cpus.int_regfile_reads       1021590304                       # number of integer regfile reads
system.switch_cpus.int_regfile_writes       562147588                       # number of integer regfile writes
system.switch_cpus.fp_regfile_reads            874401                       # number of floating regfile reads
system.switch_cpus.fp_regfile_writes           845437                       # number of floating regfile writes
system.switch_cpus.misc_regfile_reads          181115                       # number of misc regfile reads
system.switch_cpus.misc_regfile_writes          79162                       # number of misc regfile writes
system.l2.tags.replacements                        11                       # number of replacements
system.l2.tags.tagsinuse                  3662.541821                       # Cycle average of tags in use
system.l2.tags.total_refs                      522406                       # Total number of references to valid blocks.
system.l2.tags.sampled_refs                      3934                       # Sample count of references to valid blocks.
system.l2.tags.avg_refs                    132.792578                       # Average number of references to valid blocks.
system.l2.tags.warmup_cycle                         0                       # Cycle when the warmup percentage was hit.
system.l2.tags.occ_blocks::writebacks     2159.673977                       # Average occupied blocks per requestor
system.l2.tags.occ_blocks::switch_cpus.inst   386.973481                       # Average occupied blocks per requestor
system.l2.tags.occ_blocks::switch_cpus.data   879.894143                       # Average occupied blocks per requestor
system.l2.tags.occ_blocks::cpu.inst        188.000098                       # Average occupied blocks per requestor
system.l2.tags.occ_blocks::cpu.data         48.000123                       # Average occupied blocks per requestor
system.l2.tags.occ_percent::writebacks       0.263632                       # Average percentage of cache occupancy
system.l2.tags.occ_percent::switch_cpus.inst     0.047238                       # Average percentage of cache occupancy
system.l2.tags.occ_percent::switch_cpus.data     0.107409                       # Average percentage of cache occupancy
system.l2.tags.occ_percent::cpu.inst         0.022949                       # Average percentage of cache occupancy
system.l2.tags.occ_percent::cpu.data         0.005859                       # Average percentage of cache occupancy
system.l2.tags.occ_percent::total            0.447088                       # Average percentage of cache occupancy
system.l2.ReadReq_hits::switch_cpus.inst           57                       # number of ReadReq hits
system.l2.ReadReq_hits::switch_cpus.data       255364                       # number of ReadReq hits
system.l2.ReadReq_hits::total                  255421                       # number of ReadReq hits
system.l2.Writeback_hits::writebacks           268848                       # number of Writeback hits
system.l2.Writeback_hits::total                268848                       # number of Writeback hits
system.l2.ReadExReq_hits::switch_cpus.data        12331                       # number of ReadExReq hits
system.l2.ReadExReq_hits::total                 12331                       # number of ReadExReq hits
system.l2.demand_hits::switch_cpus.inst            57                       # number of demand (read+write) hits
system.l2.demand_hits::switch_cpus.data        267695                       # number of demand (read+write) hits
system.l2.demand_hits::total                   267752                       # number of demand (read+write) hits
system.l2.overall_hits::switch_cpus.inst           57                       # number of overall hits
system.l2.overall_hits::switch_cpus.data       267695                       # number of overall hits
system.l2.overall_hits::total                  267752                       # number of overall hits
system.l2.ReadReq_misses::switch_cpus.inst          544                       # number of ReadReq misses
system.l2.ReadReq_misses::switch_cpus.data         1392                       # number of ReadReq misses
system.l2.ReadReq_misses::total                  1936                       # number of ReadReq misses
system.l2.ReadExReq_misses::switch_cpus.data         1791                       # number of ReadExReq misses
system.l2.ReadExReq_misses::total                1791                       # number of ReadExReq misses
system.l2.demand_misses::switch_cpus.inst          544                       # number of demand (read+write) misses
system.l2.demand_misses::switch_cpus.data         3183                       # number of demand (read+write) misses
system.l2.demand_misses::total                   3727                       # number of demand (read+write) misses
system.l2.overall_misses::switch_cpus.inst          544                       # number of overall misses
system.l2.overall_misses::switch_cpus.data         3183                       # number of overall misses
system.l2.overall_misses::total                  3727                       # number of overall misses
system.l2.ReadReq_miss_latency::switch_cpus.inst     36134000                       # number of ReadReq miss cycles
system.l2.ReadReq_miss_latency::switch_cpus.data     85433750                       # number of ReadReq miss cycles
system.l2.ReadReq_miss_latency::total       121567750                       # number of ReadReq miss cycles
system.l2.ReadExReq_miss_latency::switch_cpus.data    113138250                       # number of ReadExReq miss cycles
system.l2.ReadExReq_miss_latency::total     113138250                       # number of ReadExReq miss cycles
system.l2.demand_miss_latency::switch_cpus.inst     36134000                       # number of demand (read+write) miss cycles
system.l2.demand_miss_latency::switch_cpus.data    198572000                       # number of demand (read+write) miss cycles
system.l2.demand_miss_latency::total        234706000                       # number of demand (read+write) miss cycles
system.l2.overall_miss_latency::switch_cpus.inst     36134000                       # number of overall miss cycles
system.l2.overall_miss_latency::switch_cpus.data    198572000                       # number of overall miss cycles
system.l2.overall_miss_latency::total       234706000                       # number of overall miss cycles
system.l2.ReadReq_accesses::switch_cpus.inst          601                       # number of ReadReq accesses(hits+misses)
system.l2.ReadReq_accesses::switch_cpus.data       256756                       # number of ReadReq accesses(hits+misses)
system.l2.ReadReq_accesses::total              257357                       # number of ReadReq accesses(hits+misses)
system.l2.Writeback_accesses::writebacks       268848                       # number of Writeback accesses(hits+misses)
system.l2.Writeback_accesses::total            268848                       # number of Writeback accesses(hits+misses)
system.l2.ReadExReq_accesses::switch_cpus.data        14122                       # number of ReadExReq accesses(hits+misses)
system.l2.ReadExReq_accesses::total             14122                       # number of ReadExReq accesses(hits+misses)
system.l2.demand_accesses::switch_cpus.inst          601                       # number of demand (read+write) accesses
system.l2.demand_accesses::switch_cpus.data       270878                       # number of demand (read+write) accesses
system.l2.demand_accesses::total               271479                       # number of demand (read+write) accesses
system.l2.overall_accesses::switch_cpus.inst          601                       # number of overall (read+write) accesses
system.l2.overall_accesses::switch_cpus.data       270878                       # number of overall (read+write) accesses
system.l2.overall_accesses::total              271479                       # number of overall (read+write) accesses
system.l2.ReadReq_miss_rate::switch_cpus.inst     0.905158                       # miss rate for ReadReq accesses
system.l2.ReadReq_miss_rate::switch_cpus.data     0.005421                       # miss rate for ReadReq accesses
system.l2.ReadReq_miss_rate::total           0.007523                       # miss rate for ReadReq accesses
system.l2.ReadExReq_miss_rate::switch_cpus.data     0.126823                       # miss rate for ReadExReq accesses
system.l2.ReadExReq_miss_rate::total         0.126823                       # miss rate for ReadExReq accesses
system.l2.demand_miss_rate::switch_cpus.inst     0.905158                       # miss rate for demand accesses
system.l2.demand_miss_rate::switch_cpus.data     0.011751                       # miss rate for demand accesses
system.l2.demand_miss_rate::total            0.013729                       # miss rate for demand accesses
system.l2.overall_miss_rate::switch_cpus.inst     0.905158                       # miss rate for overall accesses
system.l2.overall_miss_rate::switch_cpus.data     0.011751                       # miss rate for overall accesses
system.l2.overall_miss_rate::total           0.013729                       # miss rate for overall accesses
system.l2.ReadReq_avg_miss_latency::switch_cpus.inst 66422.794118                       # average ReadReq miss latency
system.l2.ReadReq_avg_miss_latency::switch_cpus.data 61374.820402                       # average ReadReq miss latency
system.l2.ReadReq_avg_miss_latency::total 62793.259298                       # average ReadReq miss latency
system.l2.ReadExReq_avg_miss_latency::switch_cpus.data 63170.435511                       # average ReadExReq miss latency
system.l2.ReadExReq_avg_miss_latency::total 63170.435511                       # average ReadExReq miss latency
system.l2.demand_avg_miss_latency::switch_cpus.inst 66422.794118                       # average overall miss latency
system.l2.demand_avg_miss_latency::switch_cpus.data 62385.171222                       # average overall miss latency
system.l2.demand_avg_miss_latency::total 62974.510330                       # average overall miss latency
system.l2.overall_avg_miss_latency::switch_cpus.inst 66422.794118                       # average overall miss latency
system.l2.overall_avg_miss_latency::switch_cpus.data 62385.171222                       # average overall miss latency
system.l2.overall_avg_miss_latency::total 62974.510330                       # average overall miss latency
system.l2.blocked_cycles::no_mshrs                  0                       # number of cycles access was blocked
system.l2.blocked_cycles::no_targets                0                       # number of cycles access was blocked
system.l2.blocked::no_mshrs                         0                       # number of cycles access was blocked
system.l2.blocked::no_targets                       0                       # number of cycles access was blocked
system.l2.avg_blocked_cycles::no_mshrs            nan                       # average number of cycles each access was blocked
system.l2.avg_blocked_cycles::no_targets          nan                       # average number of cycles each access was blocked
system.l2.fast_writes                               0                       # number of fast writes performed
system.l2.cache_copies                              0                       # number of cache copies performed
system.l2.writebacks::writebacks                   10                       # number of writebacks
system.l2.writebacks::total                        10                       # number of writebacks
system.l2.ReadReq_mshr_misses::switch_cpus.inst          544                       # number of ReadReq MSHR misses
system.l2.ReadReq_mshr_misses::switch_cpus.data         1392                       # number of ReadReq MSHR misses
system.l2.ReadReq_mshr_misses::total             1936                       # number of ReadReq MSHR misses
system.l2.ReadExReq_mshr_misses::switch_cpus.data         1791                       # number of ReadExReq MSHR misses
system.l2.ReadExReq_mshr_misses::total           1791                       # number of ReadExReq MSHR misses
system.l2.demand_mshr_misses::switch_cpus.inst          544                       # number of demand (read+write) MSHR misses
system.l2.demand_mshr_misses::switch_cpus.data         3183                       # number of demand (read+write) MSHR misses
system.l2.demand_mshr_misses::total              3727                       # number of demand (read+write) MSHR misses
system.l2.overall_mshr_misses::switch_cpus.inst          544                       # number of overall MSHR misses
system.l2.overall_mshr_misses::switch_cpus.data         3183                       # number of overall MSHR misses
system.l2.overall_mshr_misses::total             3727                       # number of overall MSHR misses
system.l2.ReadReq_mshr_miss_latency::switch_cpus.inst     29893000                       # number of ReadReq MSHR miss cycles
system.l2.ReadReq_mshr_miss_latency::switch_cpus.data     69434250                       # number of ReadReq MSHR miss cycles
system.l2.ReadReq_mshr_miss_latency::total     99327250                       # number of ReadReq MSHR miss cycles
system.l2.ReadExReq_mshr_miss_latency::switch_cpus.data     92547750                       # number of ReadExReq MSHR miss cycles
system.l2.ReadExReq_mshr_miss_latency::total     92547750                       # number of ReadExReq MSHR miss cycles
system.l2.demand_mshr_miss_latency::switch_cpus.inst     29893000                       # number of demand (read+write) MSHR miss cycles
system.l2.demand_mshr_miss_latency::switch_cpus.data    161982000                       # number of demand (read+write) MSHR miss cycles
system.l2.demand_mshr_miss_latency::total    191875000                       # number of demand (read+write) MSHR miss cycles
system.l2.overall_mshr_miss_latency::switch_cpus.inst     29893000                       # number of overall MSHR miss cycles
system.l2.overall_mshr_miss_latency::switch_cpus.data    161982000                       # number of overall MSHR miss cycles
system.l2.overall_mshr_miss_latency::total    191875000                       # number of overall MSHR miss cycles
system.l2.ReadReq_mshr_miss_rate::switch_cpus.inst     0.905158                       # mshr miss rate for ReadReq accesses
system.l2.ReadReq_mshr_miss_rate::switch_cpus.data     0.005421                       # mshr miss rate for ReadReq accesses
system.l2.ReadReq_mshr_miss_rate::total      0.007523                       # mshr miss rate for ReadReq accesses
system.l2.ReadExReq_mshr_miss_rate::switch_cpus.data     0.126823                       # mshr miss rate for ReadExReq accesses
system.l2.ReadExReq_mshr_miss_rate::total     0.126823                       # mshr miss rate for ReadExReq accesses
system.l2.demand_mshr_miss_rate::switch_cpus.inst     0.905158                       # mshr miss rate for demand accesses
system.l2.demand_mshr_miss_rate::switch_cpus.data     0.011751                       # mshr miss rate for demand accesses
system.l2.demand_mshr_miss_rate::total       0.013729                       # mshr miss rate for demand accesses
system.l2.overall_mshr_miss_rate::switch_cpus.inst     0.905158                       # mshr miss rate for overall accesses
system.l2.overall_mshr_miss_rate::switch_cpus.data     0.011751                       # mshr miss rate for overall accesses
system.l2.overall_mshr_miss_rate::total      0.013729                       # mshr miss rate for overall accesses
system.l2.ReadReq_avg_mshr_miss_latency::switch_cpus.inst 54950.367647                       # average ReadReq mshr miss latency
system.l2.ReadReq_avg_mshr_miss_latency::switch_cpus.data 49880.926724                       # average ReadReq mshr miss latency
system.l2.ReadReq_avg_mshr_miss_latency::total 51305.397727                       # average ReadReq mshr miss latency
system.l2.ReadExReq_avg_mshr_miss_latency::switch_cpus.data 51673.785595                       # average ReadExReq mshr miss latency
system.l2.ReadExReq_avg_mshr_miss_latency::total 51673.785595                       # average ReadExReq mshr miss latency
system.l2.demand_avg_mshr_miss_latency::switch_cpus.inst 54950.367647                       # average overall mshr miss latency
system.l2.demand_avg_mshr_miss_latency::switch_cpus.data 50889.726673                       # average overall mshr miss latency
system.l2.demand_avg_mshr_miss_latency::total 51482.425543                       # average overall mshr miss latency
system.l2.overall_avg_mshr_miss_latency::switch_cpus.inst 54950.367647                       # average overall mshr miss latency
system.l2.overall_avg_mshr_miss_latency::switch_cpus.data 50889.726673                       # average overall mshr miss latency
system.l2.overall_avg_mshr_miss_latency::total 51482.425543                       # average overall mshr miss latency
system.l2.no_allocate_misses                        0                       # Number of misses that were no-allocate
system.tol2bus.throughput                   156249371                       # Throughput (bytes/s)
system.tol2bus.trans_dist::ReadReq             257357                       # Transaction distribution
system.tol2bus.trans_dist::ReadResp            257356                       # Transaction distribution
system.tol2bus.trans_dist::Writeback           268848                       # Transaction distribution
system.tol2bus.trans_dist::ReadExReq            14122                       # Transaction distribution
system.tol2bus.trans_dist::ReadExResp           14122                       # Transaction distribution
system.tol2bus.pkt_count_system.cpu.icache.mem_side         1201                       # Packet count per connected master and slave (bytes)
system.tol2bus.pkt_count_system.cpu.dcache.mem_side       810604                       # Packet count per connected master and slave (bytes)
system.tol2bus.pkt_count                       811805                       # Packet count per connected master and slave (bytes)
system.tol2bus.tot_pkt_size_system.cpu.icache.mem_side        38400                       # Cumulative packet size per connected master and slave (bytes)
system.tol2bus.tot_pkt_size_system.cpu.dcache.mem_side     34542464                       # Cumulative packet size per connected master and slave (bytes)
system.tol2bus.tot_pkt_size                  34580864                       # Cumulative packet size per connected master and slave (bytes)
system.tol2bus.data_through_bus              34580864                       # Total data (bytes)
system.tol2bus.snoop_data_through_bus               0                       # Total snoop data (bytes)
system.tol2bus.reqLayer0.occupancy          539011500                       # Layer occupancy (ticks)
system.tol2bus.reqLayer0.utilization              0.2                       # Layer utilization (%)
[...]
system.cpu.icache.overall_mshr_hits::total          254                       # number of overall MSHR hits
system.cpu.icache.ReadReq_mshr_misses::switch_cpus.inst          601                       # number of ReadReq MSHR misses
system.cpu.icache.ReadReq_mshr_misses::total          601                       # number of ReadReq MSHR misses
system.cpu.icache.demand_mshr_misses::switch_cpus.inst          601                       # number of demand (read+write) MSHR misses
system.cpu.icache.demand_mshr_misses::total          601                       # number of demand (read+write) MSHR misses
system.cpu.icache.overall_mshr_misses::switch_cpus.inst          601                       # number of overall MSHR misses
system.cpu.icache.overall_mshr_misses::total          601                       # number of overall MSHR misses
system.cpu.icache.ReadReq_mshr_miss_latency::switch_cpus.inst     37308252                       # number of ReadReq MSHR miss cycles
system.cpu.icache.ReadReq_mshr_miss_latency::total     37308252                       # number of ReadReq MSHR miss cycles
system.cpu.icache.demand_mshr_miss_latency::switch_cpus.inst     37308252                       # number of demand (read+write) MSHR miss cycles
system.cpu.icache.demand_mshr_miss_latency::total     37308252                       # number of demand (read+write) MSHR miss cycles
system.cpu.icache.overall_mshr_miss_latency::switch_cpus.inst     37308252                       # number of overall MSHR miss cycles
system.cpu.icache.overall_mshr_miss_latency::total     37308252                       # number of overall MSHR miss cycles
system.cpu.icache.ReadReq_mshr_miss_rate::switch_cpus.inst     0.000009                       # mshr miss rate for ReadReq accesses
system.cpu.icache.ReadReq_mshr_miss_rate::total     0.000009                       # mshr miss rate for ReadReq accesses
system.cpu.icache.demand_mshr_miss_rate::switch_cpus.inst     0.000009                       # mshr miss rate for demand accesses
system.cpu.icache.demand_mshr_miss_rate::total     0.000009                       # mshr miss rate for demand accesses
system.cpu.icache.overall_mshr_miss_rate::switch_cpus.inst     0.000009                       # mshr miss rate for overall accesses
system.cpu.icache.overall_mshr_miss_rate::total     0.000009                       # mshr miss rate for overall accesses
system.cpu.icache.ReadReq_avg_mshr_miss_latency::switch_cpus.inst 62076.958403                       # average ReadReq mshr miss latency
system.cpu.icache.ReadReq_avg_mshr_miss_latency::total 62076.958403                       # average ReadReq mshr miss latency
system.cpu.icache.demand_avg_mshr_miss_latency::switch_cpus.inst 62076.958403                       # average overall mshr miss latency
system.cpu.icache.demand_avg_mshr_miss_latency::total 62076.958403                       # average overall mshr miss latency
system.cpu.icache.overall_avg_mshr_miss_latency::switch_cpus.inst 62076.958403                       # average overall mshr miss latency
system.cpu.icache.overall_avg_mshr_miss_latency::total 62076.958403                       # average overall mshr miss latency
system.cpu.icache.no_allocate_misses                0                       # Number of misses that were no-allocate
system.cpu.dcache.tags.replacements            270638                       # number of replacements
system.cpu.dcache.tags.tagsinuse           317.958598                       # Cycle average of tags in use
system.cpu.dcache.tags.total_refs           328686363                       # Total number of references to valid blocks.
system.cpu.dcache.tags.sampled_refs            270956                       # Sample count of references to valid blocks.
system.cpu.dcache.tags.avg_refs           1213.061763                       # Average number of references to valid blocks.
system.cpu.dcache.tags.warmup_cycle                 0                       # Cycle when the warmup percentage was hit.
system.cpu.dcache.tags.occ_blocks::switch_cpus.data   317.953096                       # Average occupied blocks per requestor
system.cpu.dcache.tags.occ_blocks::cpu.data     0.005502                       # Average occupied blocks per requestor
system.cpu.dcache.tags.occ_percent::switch_cpus.data     0.621002                       # Average percentage of cache occupancy
system.cpu.dcache.tags.occ_percent::cpu.data     0.000011                       # Average percentage of cache occupancy
system.cpu.dcache.tags.occ_percent::total     0.621013                       # Average percentage of cache occupancy
system.cpu.dcache.ReadReq_hits::switch_cpus.data    199260880                       # number of ReadReq hits
system.cpu.dcache.ReadReq_hits::total       199260880                       # number of ReadReq hits
system.cpu.dcache.WriteReq_hits::switch_cpus.data    129424695                       # number of WriteReq hits
system.cpu.dcache.WriteReq_hits::total      129424695                       # number of WriteReq hits
system.cpu.dcache.LoadLockedReq_hits::switch_cpus.data           69                       # number of LoadLockedReq hits
system.cpu.dcache.LoadLockedReq_hits::total           69                       # number of LoadLockedReq hits
system.cpu.dcache.StoreCondReq_hits::switch_cpus.data           77                       # number of StoreCondReq hits
system.cpu.dcache.StoreCondReq_hits::total           77                       # number of StoreCondReq hits
system.cpu.dcache.demand_hits::switch_cpus.data    328685575                       # number of demand (read+write) hits
system.cpu.dcache.demand_hits::total        328685575                       # number of demand (read+write) hits
system.cpu.dcache.overall_hits::switch_cpus.data    328685575                       # number of overall hits
system.cpu.dcache.overall_hits::total       328685575                       # number of overall hits
system.cpu.dcache.ReadReq_misses::switch_cpus.data       271370                       # number of ReadReq misses
system.cpu.dcache.ReadReq_misses::total        271370                       # number of ReadReq misses
system.cpu.dcache.WriteReq_misses::switch_cpus.data        22885                       # number of WriteReq misses
system.cpu.dcache.WriteReq_misses::total        22885                       # number of WriteReq misses
system.cpu.dcache.LoadLockedReq_misses::switch_cpus.data            9                       # number of LoadLockedReq misses
system.cpu.dcache.LoadLockedReq_misses::total            9                       # number of LoadLockedReq misses
system.cpu.dcache.demand_misses::switch_cpus.data       294255                       # number of demand (read+write) misses
system.cpu.dcache.demand_misses::total         294255                       # number of demand (read+write) misses
system.cpu.dcache.overall_misses::switch_cpus.data       294255                       # number of overall misses
system.cpu.dcache.overall_misses::total        294255                       # number of overall misses
system.cpu.dcache.ReadReq_miss_latency::switch_cpus.data   4011622250                       # number of ReadReq miss cycles
system.cpu.dcache.ReadReq_miss_latency::total   4011622250                       # number of ReadReq miss cycles
system.cpu.dcache.WriteReq_miss_latency::switch_cpus.data    769903055                       # number of WriteReq miss cycles
system.cpu.dcache.WriteReq_miss_latency::total    769903055                       # number of WriteReq miss cycles
system.cpu.dcache.LoadLockedReq_miss_latency::switch_cpus.data       197250                       # number of LoadLockedReq miss cycles
system.cpu.dcache.LoadLockedReq_miss_latency::total       197250                       # number of LoadLockedReq miss cycles
system.cpu.dcache.demand_miss_latency::switch_cpus.data   4781525305                       # number of demand (read+write) miss cycles
system.cpu.dcache.demand_miss_latency::total   4781525305                       # number of demand (read+write) miss cycles
system.cpu.dcache.overall_miss_latency::switch_cpus.data   4781525305                       # number of overall miss cycles
system.cpu.dcache.overall_miss_latency::total   4781525305                       # number of overall miss cycles
system.cpu.dcache.ReadReq_accesses::switch_cpus.data    199532250                       # number of ReadReq accesses(hits+misses)
system.cpu.dcache.ReadReq_accesses::total    199532250                       # number of ReadReq accesses(hits+misses)
system.cpu.dcache.WriteReq_accesses::switch_cpus.data    129447580                       # number of WriteReq accesses(hits+misses)
system.cpu.dcache.WriteReq_accesses::total    129447580                       # number of WriteReq accesses(hits+misses)
system.cpu.dcache.LoadLockedReq_accesses::switch_cpus.data           78                       # number of LoadLockedReq accesses(hits+misses)
system.cpu.dcache.LoadLockedReq_accesses::total           78                       # number of LoadLockedReq accesses(hits+misses)
system.cpu.dcache.StoreCondReq_accesses::switch_cpus.data           77                       # number of StoreCondReq accesses(hits+misses)
system.cpu.dcache.StoreCondReq_accesses::total           77                       # number of StoreCondReq accesses(hits+misses)
system.cpu.dcache.demand_accesses::switch_cpus.data    328979830                       # number of demand (read+write) accesses
system.cpu.dcache.demand_accesses::total    328979830                       # number of demand (read+write) accesses
system.cpu.dcache.overall_accesses::switch_cpus.data    328979830                       # number of overall (read+write) accesses
system.cpu.dcache.overall_accesses::total    328979830                       # number of overall (read+write) accesses
system.cpu.dcache.ReadReq_miss_rate::switch_cpus.data     0.001360                       # miss rate for ReadReq accesses
system.cpu.dcache.ReadReq_miss_rate::total     0.001360                       # miss rate for ReadReq accesses
system.cpu.dcache.WriteReq_miss_rate::switch_cpus.data     0.000177                       # miss rate for WriteReq accesses
system.cpu.dcache.WriteReq_miss_rate::total     0.000177                       # miss rate for WriteReq accesses
system.cpu.dcache.LoadLockedReq_miss_rate::switch_cpus.data     0.115385                       # miss rate for LoadLockedReq accesses
system.cpu.dcache.LoadLockedReq_miss_rate::total     0.115385                       # miss rate for LoadLockedReq accesses
system.cpu.dcache.demand_miss_rate::switch_cpus.data     0.000894                       # miss rate for demand accesses
system.cpu.dcache.demand_miss_rate::total     0.000894                       # miss rate for demand accesses
system.cpu.dcache.overall_miss_rate::switch_cpus.data     0.000894                       # miss rate for overall accesses
system.cpu.dcache.overall_miss_rate::total     0.000894                       # miss rate for overall accesses
system.cpu.dcache.ReadReq_avg_miss_latency::switch_cpus.data 14782.850905                       # average ReadReq miss latency
system.cpu.dcache.ReadReq_avg_miss_latency::total 14782.850905                       # average ReadReq miss latency
system.cpu.dcache.WriteReq_avg_miss_latency::switch_cpus.data 33642.257155                       # average WriteReq miss latency
system.cpu.dcache.WriteReq_avg_miss_latency::total 33642.257155                       # average WriteReq miss latency
system.cpu.dcache.LoadLockedReq_avg_miss_latency::switch_cpus.data 21916.666667                       # average LoadLockedReq miss latency
system.cpu.dcache.LoadLockedReq_avg_miss_latency::total 21916.666667                       # average LoadLockedReq miss latency
system.cpu.dcache.demand_avg_miss_latency::switch_cpus.data 16249.597475                       # average overall miss latency
system.cpu.dcache.demand_avg_miss_latency::total 16249.597475                       # average overall miss latency
system.cpu.dcache.overall_avg_miss_latency::switch_cpus.data 16249.597475                       # average overall miss latency
system.cpu.dcache.overall_avg_miss_latency::total 16249.597475                       # average overall miss latency
system.cpu.dcache.blocked_cycles::no_mshrs         6031                       # number of cycles access was blocked
system.cpu.dcache.blocked_cycles::no_targets            0                       # number of cycles access was blocked
system.cpu.dcache.blocked::no_mshrs               350                       # number of cycles access was blocked
system.cpu.dcache.blocked::no_targets               0                       # number of cycles access was blocked
system.cpu.dcache.avg_blocked_cycles::no_mshrs    17.231429                       # average number of cycles each access was blocked
system.cpu.dcache.avg_blocked_cycles::no_targets          nan                       # average number of cycles each access was blocked
system.cpu.dcache.fast_writes                       0                       # number of fast writes performed
system.cpu.dcache.cache_copies                      0                       # number of cache copies performed
system.cpu.dcache.writebacks::writebacks       268848                       # number of writebacks
system.cpu.dcache.writebacks::total            268848                       # number of writebacks
system.cpu.dcache.ReadReq_mshr_hits::switch_cpus.data        14619                       # number of ReadReq MSHR hits
system.cpu.dcache.ReadReq_mshr_hits::total        14619                       # number of ReadReq MSHR hits
system.cpu.dcache.WriteReq_mshr_hits::switch_cpus.data         8763                       # number of WriteReq MSHR hits
system.cpu.dcache.WriteReq_mshr_hits::total         8763                       # number of WriteReq MSHR hits
system.cpu.dcache.LoadLockedReq_mshr_hits::switch_cpus.data            4                       # number of LoadLockedReq MSHR hits
system.cpu.dcache.LoadLockedReq_mshr_hits::total            4                       # number of LoadLockedReq MSHR hits
system.cpu.dcache.demand_mshr_hits::switch_cpus.data        23382                       # number of demand (read+write) MSHR hits
system.cpu.dcache.demand_mshr_hits::total        23382                       # number of demand (read+write) MSHR hits
system.cpu.dcache.overall_mshr_hits::switch_cpus.data        23382                       # number of overall MSHR hits
system.cpu.dcache.overall_mshr_hits::total        23382                       # number of overall MSHR hits
system.cpu.dcache.ReadReq_mshr_misses::switch_cpus.data       256751                       # number of ReadReq MSHR misses
system.cpu.dcache.ReadReq_mshr_misses::total       256751                       # number of ReadReq MSHR misses
system.cpu.dcache.WriteReq_mshr_misses::switch_cpus.data        14122                       # number of WriteReq MSHR misses
system.cpu.dcache.WriteReq_mshr_misses::total        14122                       # number of WriteReq MSHR misses
system.cpu.dcache.LoadLockedReq_mshr_misses::switch_cpus.data            5                       # number of LoadLockedReq MSHR misses
system.cpu.dcache.LoadLockedReq_mshr_misses::total            5                       # number of LoadLockedReq MSHR misses
system.cpu.dcache.demand_mshr_misses::switch_cpus.data       270873                       # number of demand (read+write) MSHR misses
system.cpu.dcache.demand_mshr_misses::total       270873                       # number of demand (read+write) MSHR misses
system.cpu.dcache.overall_mshr_misses::switch_cpus.data       270873                       # number of overall MSHR misses
system.cpu.dcache.overall_mshr_misses::total       270873                       # number of overall MSHR misses
system.cpu.dcache.ReadReq_mshr_miss_latency::switch_cpus.data   2942541250                       # number of ReadReq MSHR miss cycles
system.cpu.dcache.ReadReq_mshr_miss_latency::total   2942541250                       # number of ReadReq MSHR miss cycles
system.cpu.dcache.WriteReq_mshr_miss_latency::switch_cpus.data    250659750                       # number of WriteReq MSHR miss cycles
system.cpu.dcache.WriteReq_mshr_miss_latency::total    250659750                       # number of WriteReq MSHR miss cycles
system.cpu.dcache.LoadLockedReq_mshr_miss_latency::switch_cpus.data        55000                       # number of LoadLockedReq MSHR miss cycles
system.cpu.dcache.LoadLockedReq_mshr_miss_latency::total        55000                       # number of LoadLockedReq MSHR miss cycles
system.cpu.dcache.demand_mshr_miss_latency::switch_cpus.data   3193201000                       # number of demand (read+write) MSHR miss cycles
system.cpu.dcache.demand_mshr_miss_latency::total   3193201000                       # number of demand (read+write) MSHR miss cycles
system.cpu.dcache.overall_mshr_miss_latency::switch_cpus.data   3193201000                       # number of overall MSHR miss cycles
system.cpu.dcache.overall_mshr_miss_latency::total   3193201000                       # number of overall MSHR miss cycles
system.cpu.dcache.ReadReq_mshr_miss_rate::switch_cpus.data     0.001287                       # mshr miss rate for ReadReq accesses
system.cpu.dcache.ReadReq_mshr_miss_rate::total     0.001287                       # mshr miss rate for ReadReq accesses
system.cpu.dcache.WriteReq_mshr_miss_rate::switch_cpus.data     0.000109                       # mshr miss rate for WriteReq accesses
system.cpu.dcache.WriteReq_mshr_miss_rate::total     0.000109                       # mshr miss rate for WriteReq accesses
system.cpu.dcache.LoadLockedReq_mshr_miss_rate::switch_cpus.data     0.064103                       # mshr miss rate for LoadLockedReq accesses
system.cpu.dcache.LoadLockedReq_mshr_miss_rate::total     0.064103                       # mshr miss rate for LoadLockedReq accesses
system.cpu.dcache.demand_mshr_miss_rate::switch_cpus.data     0.000823                       # mshr miss rate for demand accesses
system.cpu.dcache.demand_mshr_miss_rate::total     0.000823                       # mshr miss rate for demand accesses
system.cpu.dcache.overall_mshr_miss_rate::switch_cpus.data     0.000823                       # mshr miss rate for overall accesses
system.cpu.dcache.overall_mshr_miss_rate::total     0.000823                       # mshr miss rate for overall accesses
system.cpu.dcache.ReadReq_avg_mshr_miss_latency::switch_cpus.data 11460.680776                       # average ReadReq mshr miss latency
system.cpu.dcache.ReadReq_avg_mshr_miss_latency::total 11460.680776                       # average ReadReq mshr miss latency
system.cpu.dcache.WriteReq_avg_mshr_miss_latency::switch_cpus.data 17749.592834                       # average WriteReq mshr miss latency
system.cpu.dcache.WriteReq_avg_mshr_miss_latency::total 17749.592834                       # average WriteReq mshr miss latency
system.cpu.dcache.LoadLockedReq_avg_mshr_miss_latency::switch_cpus.data        11000                       # average LoadLockedReq mshr miss latency
system.cpu.dcache.LoadLockedReq_avg_mshr_miss_latency::total        11000                       # average LoadLockedReq mshr miss latency
system.cpu.dcache.demand_avg_mshr_miss_latency::switch_cpus.data 11788.554046                       # average overall mshr miss latency
system.cpu.dcache.demand_avg_mshr_miss_latency::total 11788.554046                       # average overall mshr miss latency
system.cpu.dcache.overall_avg_mshr_miss_latency::switch_cpus.data 11788.554046                       # average overall mshr miss latency
system.cpu.dcache.overall_avg_mshr_miss_latency::total 11788.554046                       # average overall mshr miss latency
system.cpu.dcache.no_allocate_misses                0                       # Number of misses that were no-allocate

---------- End Simulation Statistics   ----------
