Redirecting stdout to /home/majid/gem5/gem5-relax/tests/test-progs/susan/runs/lena-corners-520-1-relaxed-1/lena-corners-520-1-relaxed-1.out
Redirecting stderr to /home/majid/gem5/gem5-relax/tests/test-progs/susan/runs/lena-corners-520-1-relaxed-1/lena-corners-520-1-relaxed-1.err
gem5 Simulator System.  http://gem5.org
gem5 is copyrighted software; use the --copyright option for details.

gem5 compiled Apr 21 2014 11:01:47
gem5 started Apr 24 2014 17:42:54
gem5 executing on drg.ics.uci.edu
command line: /home/majid/gem5/gem5-relax/build/ALPHA/gem5.opt --redirect-stdout --redirect-stderr --stdout-file=/home/majid/gem5/gem5-relax/tests/test-progs/susan/runs/lena-corners-520-1-relaxed-1/lena-corners-520-1-relaxed-1.out --stderr-file=/home/majid/gem5/gem5-relax/tests/test-progs/susan/runs/lena-corners-520-1-relaxed-1/lena-corners-520-1-relaxed-1.err --outdir=/home/majid/gem5/gem5-relax/tests/test-progs/susan/runs/lena-corners-520-1-relaxed-1 --debug-flags=PseudoInst /home/majid/gem5/gem5-relax/configs/example/se_relax_cache.py --cpu-type=detailed --num-cpus=1 --sys-clock=2GHz --cpu-clock=2GHz --mem-type=ddr3_1600_x64 --mem-size=512MB --caches --l2cache --num-l2caches=1 --num-l3caches=0 --l1d_size=32kB --l1i_size=32kB --l2_size=512kB --l1d_assoc=4 --l1i_assoc=4 --l2_assoc=8 --cacheline_size=64 --fast-forward=3390 --maxinsts=100000000000000 --at-instruction --replacement_policy=random --l1_voltage_parameter_file=/home/majid/gem5/gem5-relax/ber_info/gem5params-L1-A.csv --l2_voltage_parameter_file=/home/majid/gem5/gem5-relax/ber_info/gem5params-L2-A.csv --vdd3_l1=520 --vdd2_l1=1000 --vdd1_l1=1000 --vdd3_l2=1000 --vdd2_l2=1000 --vdd1_l2=1000 --init_afb_l1=1 --init_afb_l2=0 --clean_ways_l1=1 --clean_ways_l2=8 -c /home/majid/gem5/gem5-relax/tests/test-progs/susan/bin/alpha/susan -o /home/majid/gem5/gem5-relax/tests/test-progs/susan/inputs/lena.pgm /home/majid/gem5/gem5-relax/tests/test-progs/susan/outputs/lena-corners-520-1-relaxed-1.pgm -c
Global frequency set at 1000000000000 ticks per second
info: Reading this cache's voltage parameter file...
info: Reading this cache's voltage parameter file...
info: Reading this cache's voltage parameter file...
info: Generating fault maps for this cache
info: Fault map generated
info: Dumping cache fault map for VDDs [520 mV, 1000 mV, 1000 mV]...
info: Block# = 0 ==>  0, 0, 0
info: Block# = 1 ==>  1, 0, 0
info: Block# = 2 ==>  0, 0, 0
info: Block# = 3 ==>  0, 0, 0
info: Block# = 4 ==>  0, 0, 0
info: Block# = 5 ==>  1, 0, 0
info: Block# = 6 ==>  1, 0, 0
info: Block# = 7 ==>  0, 0, 0
info: Block# = 8 ==>  0, 0, 0
info: Block# = 9 ==>  0, 0, 0
info: Block# = 10 ==>  1, 0, 0
info: Block# = 11 ==>  0, 0, 0
info: Block# = 12 ==>  0, 0, 0
info: Block# = 13 ==>  1, 0, 0
info: Block# = 14 ==>  2, 0, 0
info: Block# = 15 ==>  0, 0, 0
info: Block# = 16 ==>  0, 0, 0
info: Block# = 17 ==>  0, 0, 0
info: Block# = 18 ==>  1, 0, 0
info: Block# = 19 ==>  0, 0, 0
info: Block# = 20 ==>  0, 0, 0
info: Block# = 21 ==>  0, 0, 0
info: Block# = 22 ==>  3, 0, 0
info: Block# = 23 ==>  0, 0, 0
info: Block# = 24 ==>  0, 0, 0
info: Block# = 25 ==>  0, 0, 0
info: Block# = 26 ==>  0, 0, 0
info: Block# = 27 ==>  1, 0, 0
info: Block# = 28 ==>  0, 0, 0
info: Block# = 29 ==>  1, 0, 0
info: Block# = 30 ==>  0, 0, 0
info: Block# = 31 ==>  1, 0, 0
info: Block# = 32 ==>  0, 0, 0
info: Block# = 33 ==>  1, 0, 0
info: Block# = 34 ==>  0, 0, 0
info: Block# = 35 ==>  2, 0, 0
info: Block# = 36 ==>  0, 0, 0
info: Block# = 37 ==>  0, 0, 0
info: Block# = 38 ==>  2, 0, 0
info: Block# = 39 ==>  0, 0, 0
info: Block# = 40 ==>  0, 0, 0
info: Block# = 41 ==>  1, 0, 0
info: Block# = 42 ==>  1, 0, 0
info: Block# = 43 ==>  0, 0, 0
info: Block# = 44 ==>  0, 0, 0
info: Block# = 45 ==>  2, 0, 0
info: Block# = 46 ==>  1, 0, 0
info: Block# = 47 ==>  1, 0, 0
info: Block# = 48 ==>  0, 0, 0
info: Block# = 49 ==>  0, 0, 0
info: Block# = 50 ==>  1, 0, 0
info: Block# = 51 ==>  2, 0, 0
info: Block# = 52 ==>  0, 0, 0
info: Block# = 53 ==>  0, 0, 0
info: Block# = 54 ==>  0, 0, 0
info: Block# = 55 ==>  0, 0, 0
info: Block# = 56 ==>  0, 0, 0
info: Block# = 57 ==>  0, 0, 0
info: Block# = 58 ==>  0, 0, 0
info: Block# = 59 ==>  0, 0, 0
info: Block# = 60 ==>  0, 0, 0
info: Block# = 61 ==>  1, 0, 0
info: Block# = 62 ==>  0, 0, 0
info: Block# = 63 ==>  1, 0, 0
info: Block# = 64 ==>  0, 0, 0
info: Block# = 65 ==>  0, 0, 0
info: Block# = 66 ==>  4, 0, 0
info: Block# = 67 ==>  1, 0, 0
info: Block# = 68 ==>  0, 0, 0
info: Block# = 69 ==>  0, 0, 0
info: Block# = 70 ==>  0, 0, 0
info: Block# = 71 ==>  0, 0, 0
info: Block# = 72 ==>  0, 0, 0
info: Block# = 73 ==>  0, 0, 0
info: Block# = 74 ==>  0, 0, 0
info: Block# = 75 ==>  0, 0, 0
info: Block# = 76 ==>  0, 0, 0
info: Block# = 77 ==>  0, 0, 0
info: Block# = 78 ==>  0, 0, 0
info: Block# = 79 ==>  2, 0, 0
info: Block# = 80 ==>  0, 0, 0
info: Block# = 81 ==>  1, 0, 0
info: Block# = 82 ==>  0, 0, 0
info: Block# = 83 ==>  1, 0, 0
info: Block# = 84 ==>  0, 0, 0
info: Block# = 85 ==>  0, 0, 0
info: Block# = 86 ==>  2, 0, 0
info: Block# = 87 ==>  2, 0, 0
info: Block# = 88 ==>  0, 0, 0
info: Block# = 89 ==>  0, 0, 0
info: Block# = 90 ==>  0, 0, 0
info: Block# = 91 ==>  0, 0, 0
info: Block# = 92 ==>  0, 0, 0
info: Block# = 93 ==>  0, 0, 0
info: Block# = 94 ==>  0, 0, 0
info: Block# = 95 ==>  0, 0, 0
info: Block# = 96 ==>  0, 0, 0
info: Block# = 97 ==>  1, 0, 0
info: Block# = 98 ==>  2, 0, 0
info: Block# = 99 ==>  1, 0, 0
info: Block# = 100 ==>  0, 0, 0
info: Block# = 101 ==>  1, 0, 0
info: Block# = 102 ==>  0, 0, 0
info: Block# = 103 ==>  0, 0, 0
info: Block# = 104 ==>  0, 0, 0
info: Block# = 105 ==>  1, 0, 0
info: Block# = 106 ==>  0, 0, 0
info: Block# = 107 ==>  0, 0, 0
info: Block# = 108 ==>  0, 0, 0
info: Block# = 109 ==>  0, 0, 0
info: Block# = 110 ==>  0, 0, 0
info: Block# = 111 ==>  0, 0, 0
info: Block# = 112 ==>  0, 0, 0
info: Block# = 113 ==>  0, 0, 0
info: Block# = 114 ==>  2, 0, 0
info: Block# = 115 ==>  0, 0, 0
info: Block# = 116 ==>  0, 0, 0
info: Block# = 117 ==>  2, 0, 0
info: Block# = 118 ==>  2, 0, 0
info: Block# = 119 ==>  1, 0, 0
info: Block# = 120 ==>  0, 0, 0
info: Block# = 121 ==>  1, 0, 0
info: Block# = 122 ==>  1, 0, 0
info: Block# = 123 ==>  2, 0, 0
info: Block# = 124 ==>  0, 0, 0
info: Block# = 125 ==>  0, 0, 0
info: Block# = 126 ==>  0, 0, 0
info: Block# = 127 ==>  0, 0, 0
info: Block# = 128 ==>  0, 0, 0
info: Block# = 129 ==>  0, 0, 0
info: Block# = 130 ==>  2, 0, 0
info: Block# = 131 ==>  0, 0, 0
info: Block# = 132 ==>  0, 0, 0
info: Block# = 133 ==>  0, 0, 0
info: Block# = 134 ==>  0, 0, 0
info: Block# = 135 ==>  0, 0, 0
info: Block# = 136 ==>  0, 0, 0
info: Block# = 137 ==>  1, 0, 0
info: Block# = 138 ==>  1, 0, 0
info: Block# = 139 ==>  1, 0, 0
info: Block# = 140 ==>  0, 0, 0
info: Block# = 141 ==>  1, 0, 0
info: Block# = 142 ==>  0, 0, 0
info: Block# = 143 ==>  0, 0, 0
info: Block# = 144 ==>  0, 0, 0
info: Block# = 145 ==>  1, 0, 0
info: Block# = 146 ==>  0, 0, 0
info: Block# = 147 ==>  0, 0, 0
info: Block# = 148 ==>  0, 0, 0
info: Block# = 149 ==>  0, 0, 0
info: Block# = 150 ==>  0, 0, 0
info: Block# = 151 ==>  0, 0, 0
info: Block# = 152 ==>  0, 0, 0
info: Block# = 153 ==>  1, 0, 0
info: Block# = 154 ==>  1, 0, 0
info: Block# = 155 ==>  0, 0, 0
info: Block# = 156 ==>  0, 0, 0
info: Block# = 157 ==>  0, 0, 0
info: Block# = 158 ==>  0, 0, 0
info: Block# = 159 ==>  0, 0, 0
info: Block# = 160 ==>  0, 0, 0
info: Block# = 161 ==>  0, 0, 0
info: Block# = 162 ==>  0, 0, 0
info: Block# = 163 ==>  0, 0, 0
info: Block# = 164 ==>  0, 0, 0
info: Block# = 165 ==>  1, 0, 0
info: Block# = 166 ==>  1, 0, 0
info: Block# = 167 ==>  1, 0, 0
info: Block# = 168 ==>  0, 0, 0
info: Block# = 169 ==>  2, 0, 0
info: Block# = 170 ==>  1, 0, 0
info: Block# = 171 ==>  0, 0, 0
info: Block# = 172 ==>  0, 0, 0
info: Block# = 173 ==>  0, 0, 0
info: Block# = 174 ==>  0, 0, 0
info: Block# = 175 ==>  1, 0, 0
info: Block# = 176 ==>  0, 0, 0
info: Block# = 177 ==>  2, 0, 0
info: Block# = 178 ==>  1, 0, 0
info: Block# = 179 ==>  1, 0, 0
info: Block# = 180 ==>  0, 0, 0
info: Block# = 181 ==>  0, 0, 0
info: Block# = 182 ==>  1, 0, 0
info: Block# = 183 ==>  1, 0, 0
info: Block# = 184 ==>  0, 0, 0
info: Block# = 185 ==>  1, 0, 0
info: Block# = 186 ==>  1, 0, 0
info: Block# = 187 ==>  0, 0, 0
info: Block# = 188 ==>  0, 0, 0
info: Block# = 189 ==>  0, 0, 0
info: Block# = 190 ==>  0, 0, 0
info: Block# = 191 ==>  0, 0, 0
info: Block# = 192 ==>  0, 0, 0
info: Block# = 193 ==>  1, 0, 0
info: Block# = 194 ==>  1, 0, 0
info: Block# = 195 ==>  0, 0, 0
info: Block# = 196 ==>  0, 0, 0
info: Block# = 197 ==>  2, 0, 0
info: Block# = 198 ==>  1, 0, 0
info: Block# = 199 ==>  1, 0, 0
info: Block# = 200 ==>  0, 0, 0
info: Block# = 201 ==>  1, 0, 0
info: Block# = 202 ==>  0, 0, 0
info: Block# = 203 ==>  0, 0, 0
info: Block# = 204 ==>  0, 0, 0
info: Block# = 205 ==>  0, 0, 0
info: Block# = 206 ==>  1, 0, 0
info: Block# = 207 ==>  0, 0, 0
info: Block# = 208 ==>  0, 0, 0
info: Block# = 209 ==>  0, 0, 0
info: Block# = 210 ==>  1, 0, 0
info: Block# = 211 ==>  0, 0, 0
info: Block# = 212 ==>  0, 0, 0
info: Block# = 213 ==>  0, 0, 0
info: Block# = 214 ==>  3, 0, 0
info: Block# = 215 ==>  0, 0, 0
info: Block# = 216 ==>  0, 0, 0
info: Block# = 217 ==>  0, 0, 0
info: Block# = 218 ==>  0, 0, 0
info: Block# = 219 ==>  1, 0, 0
info: Block# = 220 ==>  0, 0, 0
info: Block# = 221 ==>  1, 0, 0
info: Block# = 222 ==>  0, 0, 0
info: Block# = 223 ==>  0, 0, 0
info: Block# = 224 ==>  0, 0, 0
info: Block# = 225 ==>  1, 0, 0
info: Block# = 226 ==>  0, 0, 0
info: Block# = 227 ==>  0, 0, 0
info: Block# = 228 ==>  0, 0, 0
info: Block# = 229 ==>  1, 0, 0
info: Block# = 230 ==>  1, 0, 0
info: Block# = 231 ==>  0, 0, 0
info: Block# = 232 ==>  0, 0, 0
info: Block# = 233 ==>  1, 0, 0
info: Block# = 234 ==>  0, 0, 0
info: Block# = 235 ==>  1, 0, 0
info: Block# = 236 ==>  0, 0, 0
info: Block# = 237 ==>  0, 0, 0
info: Block# = 238 ==>  0, 0, 0
info: Block# = 239 ==>  0, 0, 0
info: Block# = 240 ==>  0, 0, 0
info: Block# = 241 ==>  2, 0, 0
info: Block# = 242 ==>  0, 0, 0
info: Block# = 243 ==>  1, 0, 0
info: Block# = 244 ==>  0, 0, 0
info: Block# = 245 ==>  1, 0, 0
info: Block# = 246 ==>  0, 0, 0
info: Block# = 247 ==>  0, 0, 0
info: Block# = 248 ==>  0, 0, 0
info: Block# = 249 ==>  2, 0, 0
info: Block# = 250 ==>  0, 0, 0
info: Block# = 251 ==>  0, 0, 0
info: Block# = 252 ==>  0, 0, 0
info: Block# = 253 ==>  1, 0, 0
info: Block# = 254 ==>  1, 0, 0
info: Block# = 255 ==>  0, 0, 0
info: Block# = 256 ==>  0, 0, 0
info: Block# = 257 ==>  0, 0, 0
info: Block# = 258 ==>  0, 0, 0
info: Block# = 259 ==>  0, 0, 0
info: Block# = 260 ==>  0, 0, 0
info: Block# = 261 ==>  0, 0, 0
info: Block# = 262 ==>  2, 0, 0
info: Block# = 263 ==>  0, 0, 0
info: Block# = 264 ==>  0, 0, 0
info: Block# = 265 ==>  1, 0, 0
info: Block# = 266 ==>  0, 0, 0
info: Block# = 267 ==>  0, 0, 0
info: Block# = 268 ==>  0, 0, 0
info: Block# = 269 ==>  0, 0, 0
info: Block# = 270 ==>  0, 0, 0
info: Block# = 271 ==>  0, 0, 0
info: Block# = 272 ==>  0, 0, 0
info: Block# = 273 ==>  0, 0, 0
info: Block# = 274 ==>  0, 0, 0
info: Block# = 275 ==>  0, 0, 0
info: Block# = 276 ==>  0, 0, 0
info: Block# = 277 ==>  0, 0, 0
info: Block# = 278 ==>  0, 0, 0
info: Block# = 279 ==>  0, 0, 0
info: Block# = 280 ==>  0, 0, 0
info: Block# = 281 ==>  1, 0, 0
info: Block# = 282 ==>  1, 0, 0
info: Block# = 283 ==>  1, 0, 0
info: Block# = 284 ==>  0, 0, 0
info: Block# = 285 ==>  0, 0, 0
info: Block# = 286 ==>  2, 0, 0
info: Block# = 287 ==>  0, 0, 0
info: Block# = 288 ==>  0, 0, 0
info: Block# = 289 ==>  2, 0, 0
info: Block# = 290 ==>  0, 0, 0
info: Block# = 291 ==>  2, 0, 0
info: Block# = 292 ==>  0, 0, 0
info: Block# = 293 ==>  0, 0, 0
info: Block# = 294 ==>  0, 0, 0
info: Block# = 295 ==>  1, 0, 0
info: Block# = 296 ==>  0, 0, 0
info: Block# = 297 ==>  0, 0, 0
info: Block# = 298 ==>  0, 0, 0
info: Block# = 299 ==>  2, 0, 0
info: Block# = 300 ==>  0, 0, 0
info: Block# = 301 ==>  0, 0, 0
info: Block# = 302 ==>  0, 0, 0
info: Block# = 303 ==>  1, 0, 0
info: Block# = 304 ==>  0, 0, 0
info: Block# = 305 ==>  1, 0, 0
info: Block# = 306 ==>  2, 0, 0
info: Block# = 307 ==>  0, 0, 0
info: Block# = 308 ==>  0, 0, 0
info: Block# = 309 ==>  0, 0, 0
info: Block# = 310 ==>  0, 0, 0
info: Block# = 311 ==>  0, 0, 0
info: Block# = 312 ==>  0, 0, 0
info: Block# = 313 ==>  1, 0, 0
info: Block# = 314 ==>  0, 0, 0
info: Block# = 315 ==>  1, 0, 0
info: Block# = 316 ==>  0, 0, 0
info: Block# = 317 ==>  0, 0, 0
info: Block# = 318 ==>  1, 0, 0
info: Block# = 319 ==>  1, 0, 0
info: Block# = 320 ==>  0, 0, 0
info: Block# = 321 ==>  0, 0, 0
info: Block# = 322 ==>  2, 0, 0
info: Block# = 323 ==>  1, 0, 0
info: Block# = 324 ==>  0, 0, 0
info: Block# = 325 ==>  1, 0, 0
info: Block# = 326 ==>  0, 0, 0
info: Block# = 327 ==>  0, 0, 0
info: Block# = 328 ==>  0, 0, 0
info: Block# = 329 ==>  0, 0, 0
info: Block# = 330 ==>  0, 0, 0
info: Block# = 331 ==>  0, 0, 0
info: Block# = 332 ==>  0, 0, 0
info: Block# = 333 ==>  2, 0, 0
info: Block# = 334 ==>  0, 0, 0
info: Block# = 335 ==>  0, 0, 0
info: Block# = 336 ==>  0, 0, 0
info: Block# = 337 ==>  0, 0, 0
info: Block# = 338 ==>  1, 0, 0
info: Block# = 339 ==>  1, 0, 0
info: Block# = 340 ==>  0, 0, 0
info: Block# = 341 ==>  0, 0, 0
info: Block# = 342 ==>  0, 0, 0
info: Block# = 343 ==>  2, 0, 0
info: Block# = 344 ==>  0, 0, 0
info: Block# = 345 ==>  1, 0, 0
info: Block# = 346 ==>  2, 0, 0
info: Block# = 347 ==>  2, 0, 0
info: Block# = 348 ==>  0, 0, 0
info: Block# = 349 ==>  2, 0, 0
info: Block# = 350 ==>  0, 0, 0
info: Block# = 351 ==>  1, 0, 0
info: Block# = 352 ==>  0, 0, 0
info: Block# = 353 ==>  0, 0, 0
info: Block# = 354 ==>  1, 0, 0
info: Block# = 355 ==>  0, 0, 0
info: Block# = 356 ==>  0, 0, 0
info: Block# = 357 ==>  0, 0, 0
info: Block# = 358 ==>  1, 0, 0
info: Block# = 359 ==>  3, 0, 0
info: Block# = 360 ==>  0, 0, 0
info: Block# = 361 ==>  1, 0, 0
info: Block# = 362 ==>  0, 0, 0
info: Block# = 363 ==>  0, 0, 0
info: Block# = 364 ==>  0, 0, 0
info: Block# = 365 ==>  1, 0, 0
info: Block# = 366 ==>  0, 0, 0
info: Block# = 367 ==>  1, 0, 0
info: Block# = 368 ==>  0, 0, 0
info: Block# = 369 ==>  0, 0, 0
info: Block# = 370 ==>  0, 0, 0
info: Block# = 371 ==>  0, 0, 0
info: Block# = 372 ==>  0, 0, 0
info: Block# = 373 ==>  1, 0, 0
info: Block# = 374 ==>  2, 0, 0
info: Block# = 375 ==>  0, 0, 0
info: Block# = 376 ==>  0, 0, 0
info: Block# = 377 ==>  2, 0, 0
info: Block# = 378 ==>  1, 0, 0
info: Block# = 379 ==>  0, 0, 0
info: Block# = 380 ==>  0, 0, 0
info: Block# = 381 ==>  0, 0, 0
info: Block# = 382 ==>  0, 0, 0
info: Block# = 383 ==>  1, 0, 0
info: Block# = 384 ==>  0, 0, 0
info: Block# = 385 ==>  2, 0, 0
info: Block# = 386 ==>  2, 0, 0
info: Block# = 387 ==>  1, 0, 0
info: Block# = 388 ==>  0, 0, 0
info: Block# = 389 ==>  1, 0, 0
info: Block# = 390 ==>  1, 0, 0
info: Block# = 391 ==>  0, 0, 0
info: Block# = 392 ==>  0, 0, 0
info: Block# = 393 ==>  0, 0, 0
info: Block# = 394 ==>  1, 0, 0
info: Block# = 395 ==>  0, 0, 0
info: Block# = 396 ==>  0, 0, 0
info: Block# = 397 ==>  0, 0, 0
info: Block# = 398 ==>  0, 0, 0
info: Block# = 399 ==>  0, 0, 0
info: Block# = 400 ==>  0, 0, 0
info: Block# = 401 ==>  1, 0, 0
info: Block# = 402 ==>  0, 0, 0
info: Block# = 403 ==>  0, 0, 0
info: Block# = 404 ==>  0, 0, 0
info: Block# = 405 ==>  0, 0, 0
info: Block# = 406 ==>  3, 0, 0
info: Block# = 407 ==>  0, 0, 0
info: Block# = 408 ==>  0, 0, 0
info: Block# = 409 ==>  0, 0, 0
info: Block# = 410 ==>  1, 0, 0
info: Block# = 411 ==>  2, 0, 0
info: Block# = 412 ==>  0, 0, 0
info: Block# = 413 ==>  1, 0, 0
info: Block# = 414 ==>  1, 0, 0
info: Block# = 415 ==>  1, 0, 0
info: Block# = 416 ==>  0, 0, 0
info: Block# = 417 ==>  0, 0, 0
info: Block# = 418 ==>  0, 0, 0
info: Block# = 419 ==>  1, 0, 0
info: Block# = 420 ==>  0, 0, 0
info: Block# = 421 ==>  1, 0, 0
info: Block# = 422 ==>  0, 0, 0
info: Block# = 423 ==>  0, 0, 0
info: Block# = 424 ==>  0, 0, 0
info: Block# = 425 ==>  1, 0, 0
info: Block# = 426 ==>  0, 0, 0
info: Block# = 427 ==>  1, 0, 0
info: Block# = 428 ==>  0, 0, 0
info: Block# = 429 ==>  0, 0, 0
info: Block# = 430 ==>  1, 0, 0
info: Block# = 431 ==>  0, 0, 0
info: Block# = 432 ==>  0, 0, 0
info: Block# = 433 ==>  0, 0, 0
info: Block# = 434 ==>  1, 0, 0
info: Block# = 435 ==>  1, 0, 0
info: Block# = 436 ==>  0, 0, 0
info: Block# = 437 ==>  0, 0, 0
info: Block# = 438 ==>  0, 0, 0
info: Block# = 439 ==>  1, 0, 0
info: Block# = 440 ==>  0, 0, 0
info: Block# = 441 ==>  0, 0, 0
info: Block# = 442 ==>  0, 0, 0
info: Block# = 443 ==>  0, 0, 0
info: Block# = 444 ==>  0, 0, 0
info: Block# = 445 ==>  0, 0, 0
info: Block# = 446 ==>  2, 0, 0
info: Block# = 447 ==>  1, 0, 0
info: Block# = 448 ==>  0, 0, 0
info: Block# = 449 ==>  1, 0, 0
info: Block# = 450 ==>  1, 0, 0
info: Block# = 451 ==>  2, 0, 0
info: Block# = 452 ==>  0, 0, 0
info: Block# = 453 ==>  1, 0, 0
info: Block# = 454 ==>  2, 0, 0
info: Block# = 455 ==>  0, 0, 0
info: Block# = 456 ==>  0, 0, 0
info: Block# = 457 ==>  0, 0, 0
info: Block# = 458 ==>  0, 0, 0
info: Block# = 459 ==>  1, 0, 0
info: Block# = 460 ==>  0, 0, 0
info: Block# = 461 ==>  1, 0, 0
info: Block# = 462 ==>  0, 0, 0
info: Block# = 463 ==>  0, 0, 0
info: Block# = 464 ==>  0, 0, 0
info: Block# = 465 ==>  0, 0, 0
info: Block# = 466 ==>  1, 0, 0
info: Block# = 467 ==>  0, 0, 0
info: Block# = 468 ==>  0, 0, 0
info: Block# = 469 ==>  0, 0, 0
info: Block# = 470 ==>  0, 0, 0
info: Block# = 471 ==>  2, 0, 0
info: Block# = 472 ==>  0, 0, 0
info: Block# = 473 ==>  0, 0, 0
info: Block# = 474 ==>  0, 0, 0
info: Block# = 475 ==>  0, 0, 0
info: Block# = 476 ==>  0, 0, 0
info: Block# = 477 ==>  2, 0, 0
info: Block# = 478 ==>  0, 0, 0
info: Block# = 479 ==>  0, 0, 0
info: Block# = 480 ==>  0, 0, 0
info: Block# = 481 ==>  1, 0, 0
info: Block# = 482 ==>  0, 0, 0
info: Block# = 483 ==>  1, 0, 0
info: Block# = 484 ==>  0, 0, 0
info: Block# = 485 ==>  2, 0, 0
info: Block# = 486 ==>  1, 0, 0
info: Block# = 487 ==>  0, 0, 0
info: Block# = 488 ==>  0, 0, 0
info: Block# = 489 ==>  1, 0, 0
info: Block# = 490 ==>  1, 0, 0
info: Block# = 491 ==>  2, 0, 0
info: Block# = 492 ==>  0, 0, 0
info: Block# = 493 ==>  1, 0, 0
info: Block# = 494 ==>  1, 0, 0
info: Block# = 495 ==>  0, 0, 0
info: Block# = 496 ==>  0, 0, 0
info: Block# = 497 ==>  1, 0, 0
info: Block# = 498 ==>  1, 0, 0
info: Block# = 499 ==>  1, 0, 0
info: Block# = 500 ==>  0, 0, 0
info: Block# = 501 ==>  1, 0, 0
info: Block# = 502 ==>  0, 0, 0
info: Block# = 503 ==>  1, 0, 0
info: Block# = 504 ==>  0, 0, 0
info: Block# = 505 ==>  1, 0, 0
info: Block# = 506 ==>  0, 0, 0
info: Block# = 507 ==>  2, 0, 0
info: Block# = 508 ==>  0, 0, 0
info: Block# = 509 ==>  2, 0, 0
info: Block# = 510 ==>  2, 0, 0
info: Block# = 511 ==>  0, 0, 0
info: Block [3][2] disabled and invalidated 
info: Block [5][2] disabled and invalidated 
info: Block [8][3] disabled and invalidated 
info: Block [9][2] disabled and invalidated 
info: Block [11][1] disabled and invalidated 
info: Block [12][3] disabled and invalidated 
info: Block [16][2] disabled and invalidated 
info: Block [19][3] disabled and invalidated 
info: Block [21][2] disabled and invalidated 
info: Block [21][3] disabled and invalidated 
info: Block [24][2] disabled and invalidated 
info: Block [28][2] disabled and invalidated 
info: Block [29][1] disabled and invalidated 
info: Block [29][2] disabled and invalidated 
info: Block [30][3] disabled and invalidated 
info: Block [32][2] disabled and invalidated 
info: Block [42][1] disabled and invalidated 
info: Block [44][1] disabled and invalidated 
info: Block [49][1] disabled and invalidated 
info: Block [53][2] disabled and invalidated 
info: Block [60][1] disabled and invalidated 
info: Block [62][1] disabled and invalidated 
info: Block [65][2] disabled and invalidated 
info: Block [71][2] disabled and invalidated 
info: Block [72][1] disabled and invalidated 
info: Block [72][3] disabled and invalidated 
info: Block [74][3] disabled and invalidated 
info: Block [76][2] disabled and invalidated 
info: Block [80][2] disabled and invalidated 
info: Block [83][1] disabled and invalidated 
info: Block [85][3] disabled and invalidated 
info: Block [86][2] disabled and invalidated 
info: Block [86][3] disabled and invalidated 
info: Block [87][1] disabled and invalidated 
info: Block [89][3] disabled and invalidated 
info: Block [93][2] disabled and invalidated 
info: Block [94][1] disabled and invalidated 
info: Block [96][1] disabled and invalidated 
info: Block [96][2] disabled and invalidated 
info: Block [101][2] disabled and invalidated 
info: Block [102][3] disabled and invalidated 
info: Block [111][2] disabled and invalidated 
info: Block [112][3] disabled and invalidated 
info: Block [113][2] disabled and invalidated 
info: Block [117][3] disabled and invalidated 
info: Block [119][1] disabled and invalidated 
info: Block [121][1] disabled and invalidated 
info: Block [122][3] disabled and invalidated 
info: Block [126][3] disabled and invalidated 
info: Block [127][1] disabled and invalidated 
info: Block [127][2] disabled and invalidated 
info: Dumping cache status for current VDD = 520 mV and AFB = 1...
info: Status Bits: Disabled, Faulty, HWPrefetched, Referenced | Dirty, Readable, Writable, Valid
info: Block# = 0 ==>  0
info: Block# = 1 ==> 40
info: Block# = 2 ==>  0
info: Block# = 3 ==>  0
info: Block# = 4 ==>  0
info: Block# = 5 ==> 40
info: Block# = 6 ==> 40
info: Block# = 7 ==>  0
info: Block# = 8 ==>  0
info: Block# = 9 ==>  0
info: Block# = 10 ==> 40
info: Block# = 11 ==>  0
info: Block# = 12 ==>  0
info: Block# = 13 ==> 40
info: Block# = 14 ==> c0
info: Block# = 15 ==>  0
info: Block# = 16 ==>  0
info: Block# = 17 ==>  0
info: Block# = 18 ==> 40
info: Block# = 19 ==>  0
info: Block# = 20 ==>  0
info: Block# = 21 ==>  0
info: Block# = 22 ==> c0
info: Block# = 23 ==>  0
info: Block# = 24 ==>  0
info: Block# = 25 ==>  0
info: Block# = 26 ==>  0
info: Block# = 27 ==> 40
info: Block# = 28 ==>  0
info: Block# = 29 ==> 40
info: Block# = 30 ==>  0
info: Block# = 31 ==> 40
info: Block# = 32 ==>  0
info: Block# = 33 ==> 40
info: Block# = 34 ==>  0
info: Block# = 35 ==> c0
info: Block# = 36 ==>  0
info: Block# = 37 ==>  0
info: Block# = 38 ==> c0
info: Block# = 39 ==>  0
info: Block# = 40 ==>  0
info: Block# = 41 ==> 40
info: Block# = 42 ==> 40
info: Block# = 43 ==>  0
info: Block# = 44 ==>  0
info: Block# = 45 ==> c0
info: Block# = 46 ==> 40
info: Block# = 47 ==> 40
info: Block# = 48 ==>  0
info: Block# = 49 ==>  0
info: Block# = 50 ==> 40
info: Block# = 51 ==> c0
info: Block# = 52 ==>  0
info: Block# = 53 ==>  0
info: Block# = 54 ==>  0
info: Block# = 55 ==>  0
info: Block# = 56 ==>  0
info: Block# = 57 ==>  0
info: Block# = 58 ==>  0
info: Block# = 59 ==>  0
info: Block# = 60 ==>  0
info: Block# = 61 ==> 40
info: Block# = 62 ==>  0
info: Block# = 63 ==> 40
info: Block# = 64 ==>  0
info: Block# = 65 ==>  0
info: Block# = 66 ==> c0
info: Block# = 67 ==> 40
info: Block# = 68 ==>  0
info: Block# = 69 ==>  0
info: Block# = 70 ==>  0
info: Block# = 71 ==>  0
info: Block# = 72 ==>  0
info: Block# = 73 ==>  0
info: Block# = 74 ==>  0
info: Block# = 75 ==>  0
info: Block# = 76 ==>  0
info: Block# = 77 ==>  0
info: Block# = 78 ==>  0
info: Block# = 79 ==> c0
info: Block# = 80 ==>  0
info: Block# = 81 ==> 40
info: Block# = 82 ==>  0
info: Block# = 83 ==> 40
info: Block# = 84 ==>  0
info: Block# = 85 ==>  0
info: Block# = 86 ==> c0
info: Block# = 87 ==> c0
info: Block# = 88 ==>  0
info: Block# = 89 ==>  0
info: Block# = 90 ==>  0
info: Block# = 91 ==>  0
info: Block# = 92 ==>  0
info: Block# = 93 ==>  0
info: Block# = 94 ==>  0
info: Block# = 95 ==>  0
info: Block# = 96 ==>  0
info: Block# = 97 ==> 40
info: Block# = 98 ==> c0
info: Block# = 99 ==> 40
info: Block# = 100 ==>  0
info: Block# = 101 ==> 40
info: Block# = 102 ==>  0
info: Block# = 103 ==>  0
info: Block# = 104 ==>  0
info: Block# = 105 ==> 40
info: Block# = 106 ==>  0
info: Block# = 107 ==>  0
info: Block# = 108 ==>  0
info: Block# = 109 ==>  0
info: Block# = 110 ==>  0
info: Block# = 111 ==>  0
info: Block# = 112 ==>  0
info: Block# = 113 ==>  0
info: Block# = 114 ==> c0
info: Block# = 115 ==>  0
info: Block# = 116 ==>  0
info: Block# = 117 ==> c0
info: Block# = 118 ==> c0
info: Block# = 119 ==> 40
info: Block# = 120 ==>  0
info: Block# = 121 ==> 40
info: Block# = 122 ==> 40
info: Block# = 123 ==> c0
info: Block# = 124 ==>  0
info: Block# = 125 ==>  0
info: Block# = 126 ==>  0
info: Block# = 127 ==>  0
info: Block# = 128 ==>  0
info: Block# = 129 ==>  0
info: Block# = 130 ==> c0
info: Block# = 131 ==>  0
info: Block# = 132 ==>  0
info: Block# = 133 ==>  0
info: Block# = 134 ==>  0
info: Block# = 135 ==>  0
info: Block# = 136 ==>  0
info: Block# = 137 ==> 40
info: Block# = 138 ==> 40
info: Block# = 139 ==> 40
info: Block# = 140 ==>  0
info: Block# = 141 ==> 40
info: Block# = 142 ==>  0
info: Block# = 143 ==>  0
info: Block# = 144 ==>  0
info: Block# = 145 ==> 40
info: Block# = 146 ==>  0
info: Block# = 147 ==>  0
info: Block# = 148 ==>  0
info: Block# = 149 ==>  0
info: Block# = 150 ==>  0
info: Block# = 151 ==>  0
info: Block# = 152 ==>  0
info: Block# = 153 ==> 40
info: Block# = 154 ==> 40
info: Block# = 155 ==>  0
info: Block# = 156 ==>  0
info: Block# = 157 ==>  0
info: Block# = 158 ==>  0
info: Block# = 159 ==>  0
info: Block# = 160 ==>  0
info: Block# = 161 ==>  0
info: Block# = 162 ==>  0
info: Block# = 163 ==>  0
info: Block# = 164 ==>  0
info: Block# = 165 ==> 40
info: Block# = 166 ==> 40
info: Block# = 167 ==> 40
info: Block# = 168 ==>  0
info: Block# = 169 ==> c0
info: Block# = 170 ==> 40
info: Block# = 171 ==>  0
info: Block# = 172 ==>  0
info: Block# = 173 ==>  0
info: Block# = 174 ==>  0
info: Block# = 175 ==> 40
info: Block# = 176 ==>  0
info: Block# = 177 ==> c0
info: Block# = 178 ==> 40
info: Block# = 179 ==> 40
info: Block# = 180 ==>  0
info: Block# = 181 ==>  0
info: Block# = 182 ==> 40
info: Block# = 183 ==> 40
info: Block# = 184 ==>  0
info: Block# = 185 ==> 40
info: Block# = 186 ==> 40
info: Block# = 187 ==>  0
info: Block# = 188 ==>  0
info: Block# = 189 ==>  0
info: Block# = 190 ==>  0
info: Block# = 191 ==>  0
info: Block# = 192 ==>  0
info: Block# = 193 ==> 40
info: Block# = 194 ==> 40
info: Block# = 195 ==>  0
info: Block# = 196 ==>  0
info: Block# = 197 ==> c0
info: Block# = 198 ==> 40
info: Block# = 199 ==> 40
info: Block# = 200 ==>  0
info: Block# = 201 ==> 40
info: Block# = 202 ==>  0
info: Block# = 203 ==>  0
info: Block# = 204 ==>  0
info: Block# = 205 ==>  0
info: Block# = 206 ==> 40
info: Block# = 207 ==>  0
info: Block# = 208 ==>  0
info: Block# = 209 ==>  0
info: Block# = 210 ==> 40
info: Block# = 211 ==>  0
info: Block# = 212 ==>  0
info: Block# = 213 ==>  0
info: Block# = 214 ==> c0
info: Block# = 215 ==>  0
info: Block# = 216 ==>  0
info: Block# = 217 ==>  0
info: Block# = 218 ==>  0
info: Block# = 219 ==> 40
info: Block# = 220 ==>  0
info: Block# = 221 ==> 40
info: Block# = 222 ==>  0
info: Block# = 223 ==>  0
info: Block# = 224 ==>  0
info: Block# = 225 ==> 40
info: Block# = 226 ==>  0
info: Block# = 227 ==>  0
info: Block# = 228 ==>  0
info: Block# = 229 ==> 40
info: Block# = 230 ==> 40
info: Block# = 231 ==>  0
info: Block# = 232 ==>  0
info: Block# = 233 ==> 40
info: Block# = 234 ==>  0
info: Block# = 235 ==> 40
info: Block# = 236 ==>  0
info: Block# = 237 ==>  0
info: Block# = 238 ==>  0
info: Block# = 239 ==>  0
info: Block# = 240 ==>  0
info: Block# = 241 ==> c0
info: Block# = 242 ==>  0
info: Block# = 243 ==> 40
info: Block# = 244 ==>  0
info: Block# = 245 ==> 40
info: Block# = 246 ==>  0
info: Block# = 247 ==>  0
info: Block# = 248 ==>  0
info: Block# = 249 ==> c0
info: Block# = 250 ==>  0
info: Block# = 251 ==>  0
info: Block# = 252 ==>  0
info: Block# = 253 ==> 40
info: Block# = 254 ==> 40
info: Block# = 255 ==>  0
info: Block# = 256 ==>  0
info: Block# = 257 ==>  0
info: Block# = 258 ==>  0
info: Block# = 259 ==>  0
info: Block# = 260 ==>  0
info: Block# = 261 ==>  0
info: Block# = 262 ==> c0
info: Block# = 263 ==>  0
info: Block# = 264 ==>  0
info: Block# = 265 ==> 40
info: Block# = 266 ==>  0
info: Block# = 267 ==>  0
info: Block# = 268 ==>  0
info: Block# = 269 ==>  0
info: Block# = 270 ==>  0
info: Block# = 271 ==>  0
info: Block# = 272 ==>  0
info: Block# = 273 ==>  0
info: Block# = 274 ==>  0
info: Block# = 275 ==>  0
info: Block# = 276 ==>  0
info: Block# = 277 ==>  0
info: Block# = 278 ==>  0
info: Block# = 279 ==>  0
info: Block# = 280 ==>  0
info: Block# = 281 ==> 40
info: Block# = 282 ==> 40
info: Block# = 283 ==> 40
info: Block# = 284 ==>  0
info: Block# = 285 ==>  0
info: Block# = 286 ==> c0
info: Block# = 287 ==>  0
info: Block# = 288 ==>  0
info: Block# = 289 ==> c0
info: Block# = 290 ==>  0
info: Block# = 291 ==> c0
info: Block# = 292 ==>  0
info: Block# = 293 ==>  0
info: Block# = 294 ==>  0
info: Block# = 295 ==> 40
info: Block# = 296 ==>  0
info: Block# = 297 ==>  0
info: Block# = 298 ==>  0
info: Block# = 299 ==> c0
info: Block# = 300 ==>  0
info: Block# = 301 ==>  0
info: Block# = 302 ==>  0
info: Block# = 303 ==> 40
info: Block# = 304 ==>  0
info: Block# = 305 ==> 40
info: Block# = 306 ==> c0
info: Block# = 307 ==>  0
info: Block# = 308 ==>  0
info: Block# = 309 ==>  0
info: Block# = 310 ==>  0
info: Block# = 311 ==>  0
info: Block# = 312 ==>  0
info: Block# = 313 ==> 40
info: Block# = 314 ==>  0
info: Block# = 315 ==> 40
info: Block# = 316 ==>  0
info: Block# = 317 ==>  0
info: Block# = 318 ==> 40
info: Block# = 319 ==> 40
info: Block# = 320 ==>  0
info: Block# = 321 ==>  0
info: Block# = 322 ==> c0
info: Block# = 323 ==> 40
info: Block# = 324 ==>  0
info: Block# = 325 ==> 40
info: Block# = 326 ==>  0
info: Block# = 327 ==>  0
info: Block# = 328 ==>  0
info: Block# = 329 ==>  0
info: Block# = 330 ==>  0
info: Block# = 331 ==>  0
info: Block# = 332 ==>  0
info: Block# = 333 ==> c0
info: Block# = 334 ==>  0
info: Block# = 335 ==>  0
info: Block# = 336 ==>  0
info: Block# = 337 ==>  0
info: Block# = 338 ==> 40
info: Block# = 339 ==> 40
info: Block# = 340 ==>  0
info: Block# = 341 ==>  0
info: Block# = 342 ==>  0
info: Block# = 343 ==> c0
info: Block# = 344 ==>  0
info: Block# = 345 ==> 40
info: Block# = 346 ==> c0
info: Block# = 347 ==> c0
info: Block# = 348 ==>  0
info: Block# = 349 ==> c0
info: Block# = 350 ==>  0
info: Block# = 351 ==> 40
info: Block# = 352 ==>  0
info: Block# = 353 ==>  0
info: Block# = 354 ==> 40
info: Block# = 355 ==>  0
info: Block# = 356 ==>  0
info: Block# = 357 ==>  0
info: Block# = 358 ==> 40
info: Block# = 359 ==> c0
info: Block# = 360 ==>  0
info: Block# = 361 ==> 40
info: Block# = 362 ==>  0
info: Block# = 363 ==>  0
info: Block# = 364 ==>  0
info: Block# = 365 ==> 40
info: Block# = 366 ==>  0
info: Block# = 367 ==> 40
info: Block# = 368 ==>  0
info: Block# = 369 ==>  0
info: Block# = 370 ==>  0
info: Block# = 371 ==>  0
info: Block# = 372 ==>  0
info: Block# = 373 ==> 40
info: Block# = 374 ==> c0
info: Block# = 375 ==>  0
info: Block# = 376 ==>  0
info: Block# = 377 ==> c0
info: Block# = 378 ==> 40
info: Block# = 379 ==>  0
info: Block# = 380 ==>  0
info: Block# = 381 ==>  0
info: Block# = 382 ==>  0
info: Block# = 383 ==> 40
info: Block# = 384 ==>  0
info: Block# = 385 ==> c0
info: Block# = 386 ==> c0
info: Block# = 387 ==> 40
info: Block# = 388 ==>  0
info: Block# = 389 ==> 40
info: Block# = 390 ==> 40
info: Block# = 391 ==>  0
info: Block# = 392 ==>  0
info: Block# = 393 ==>  0
info: Block# = 394 ==> 40
info: Block# = 395 ==>  0
info: Block# = 396 ==>  0
info: Block# = 397 ==>  0
info: Block# = 398 ==>  0
info: Block# = 399 ==>  0
info: Block# = 400 ==>  0
info: Block# = 401 ==> 40
info: Block# = 402 ==>  0
info: Block# = 403 ==>  0
info: Block# = 404 ==>  0
info: Block# = 405 ==>  0
info: Block# = 406 ==> c0
info: Block# = 407 ==>  0
info: Block# = 408 ==>  0
info: Block# = 409 ==>  0
info: Block# = 410 ==> 40
info: Block# = 411 ==> c0
info: Block# = 412 ==>  0
info: Block# = 413 ==> 40
info: Block# = 414 ==> 40
info: Block# = 415 ==> 40
info: Block# = 416 ==>  0
info: Block# = 417 ==>  0
info: Block# = 418 ==>  0
info: Block# = 419 ==> 40
info: Block# = 420 ==>  0
info: Block# = 421 ==> 40
info: Block# = 422 ==>  0
info: Block# = 423 ==>  0
info: Block# = 424 ==>  0
info: Block# = 425 ==> 40
info: Block# = 426 ==>  0
info: Block# = 427 ==> 40
info: Block# = 428 ==>  0
info: Block# = 429 ==>  0
info: Block# = 430 ==> 40
info: Block# = 431 ==>  0
info: Block# = 432 ==>  0
info: Block# = 433 ==>  0
info: Block# = 434 ==> 40
info: Block# = 435 ==> 40
info: Block# = 436 ==>  0
info: Block# = 437 ==>  0
info: Block# = 438 ==>  0
info: Block# = 439 ==> 40
info: Block# = 440 ==>  0
info: Block# = 441 ==>  0
info: Block# = 442 ==>  0
info: Block# = 443 ==>  0
info: Block# = 444 ==>  0
info: Block# = 445 ==>  0
info: Block# = 446 ==> c0
info: Block# = 447 ==> 40
info: Block# = 448 ==>  0
info: Block# = 449 ==> 40
info: Block# = 450 ==> 40
info: Block# = 451 ==> c0
info: Block# = 452 ==>  0
info: Block# = 453 ==> 40
info: Block# = 454 ==> c0
info: Block# = 455 ==>  0
info: Block# = 456 ==>  0
info: Block# = 457 ==>  0
info: Block# = 458 ==>  0
info: Block# = 459 ==> 40
info: Block# = 460 ==>  0
info: Block# = 461 ==> 40
info: Block# = 462 ==>  0
info: Block# = 463 ==>  0
info: Block# = 464 ==>  0
info: Block# = 465 ==>  0
info: Block# = 466 ==> 40
info: Block# = 467 ==>  0
info: Block# = 468 ==>  0
info: Block# = 469 ==>  0
info: Block# = 470 ==>  0
info: Block# = 471 ==> c0
info: Block# = 472 ==>  0
info: Block# = 473 ==>  0
info: Block# = 474 ==>  0
info: Block# = 475 ==>  0
info: Block# = 476 ==>  0
info: Block# = 477 ==> c0
info: Block# = 478 ==>  0
info: Block# = 479 ==>  0
info: Block# = 480 ==>  0
info: Block# = 481 ==> 40
info: Block# = 482 ==>  0
info: Block# = 483 ==> 40
info: Block# = 484 ==>  0
info: Block# = 485 ==> c0
info: Block# = 486 ==> 40
info: Block# = 487 ==>  0
info: Block# = 488 ==>  0
info: Block# = 489 ==> 40
info: Block# = 490 ==> 40
info: Block# = 491 ==> c0
info: Block# = 492 ==>  0
info: Block# = 493 ==> 40
info: Block# = 494 ==> 40
info: Block# = 495 ==>  0
info: Block# = 496 ==>  0
info: Block# = 497 ==> 40
info: Block# = 498 ==> 40
info: Block# = 499 ==> 40
info: Block# = 500 ==>  0
info: Block# = 501 ==> 40
info: Block# = 502 ==>  0
info: Block# = 503 ==> 40
info: Block# = 504 ==>  0
info: Block# = 505 ==> 40
info: Block# = 506 ==>  0
info: Block# = 507 ==> c0
info: Block# = 508 ==>  0
info: Block# = 509 ==> c0
info: Block# = 510 ==> c0
info: Block# = 511 ==>  0
Switch at instruction count:3390
info: Entering event queue @ 0.  Starting simulation...
info: Increasing stack size by one page.
Switched CPUS @ tick 1711000
switching cpus
**** REAL SIMULATION ****
info: Entering event queue @ 1711000.  Starting simulation...
info: Increasing stack size by one page.
info: Increasing stack size by one page.
info: Increasing stack size by one page.
info: Increasing stack size by one page.
info: Increasing stack size by one page.
info: Increasing stack size by one page.
info: Increasing stack size by one page.
info: Increasing stack size by one page.
info: Increasing stack size by one page.
info: Increasing stack size by one page.
info: Increasing stack size by one page.
info: Increasing stack size by one page.
info: Increasing stack size by one page.
info: Increasing stack size by one page.
info: Increasing stack size by one page.
info: Increasing stack size by one page.
info: Increasing stack size by one page.
info: Increasing stack size by one page.
info: Increasing stack size by one page.
info: Increasing stack size by one page.
info: Increasing stack size by one page.
info: Increasing stack size by one page.
info: Increasing stack size by one page.
info: Increasing stack size by one page.
info: Increasing stack size by one page.
info: Increasing stack size by one page.
info: Increasing stack size by one page.
info: Increasing stack size by one page.
info: Increasing stack size by one page.
info: Increasing stack size by one page.
info: Increasing stack size by one page.
info: Increasing stack size by one page.
info: Increasing stack size by one page.
info: Increasing stack size by one page.
info: Increasing stack size by one page.
info: Increasing stack size by one page.
info: Increasing stack size by one page.
info: Increasing stack size by one page.
info: Increasing stack size by one page.
info: Increasing stack size by one page.
info: Increasing stack size by one page.
info: Increasing stack size by one page.
info: Increasing stack size by one page.
info: Increasing stack size by one page.
info: Increasing stack size by one page.
16185500: global: Approximate Region Added: begin=0x12010, end=0x52010, Table Size=1
31617000: global: Approximate Region Added: begin=0x54010, end=0x15401c, Table Size=2
31823000: global: Approximate Region Added: begin=0x1200cf470, end=0x1200cf674, Table Size=3
426255000: global: Approximate Region Added: begin=0x156010, end=0x25601c, Table Size=4
426465500: global: Approximate Region Added: begin=0x258010, end=0x35801c, Table Size=5
43662423500: global: Approximate Region Removed: begin=0x156010, end=0x25601c, Table Size=4
43662427500: global: Approximate Region Removed: begin=0x258010, end=0x35801c, Table Size=3
Exiting @ tick 43897381500 because target called exit()
