
---------- Begin Simulation Statistics ----------
sim_seconds                                  0.055859                       # Number of seconds simulated
sim_ticks                                 55858650500                       # Number of ticks simulated
final_tick                                55860361000                       # Number of ticks from beginning of simulation (restored from checkpoints and never reset)
sim_freq                                 1000000000000                       # Frequency of simulated ticks
host_inst_rate                                  36616                       # Simulator instruction rate (inst/s)
host_op_rate                                    36616                       # Simulator op (including micro ops) rate (op/s)
host_tick_rate                                7988197                       # Simulator tick rate (ticks/s)
host_mem_usage                                 750424                       # Number of bytes of host memory used
host_seconds                                  6992.65                       # Real time elapsed on the host
sim_insts                                   256045201                       # Number of instructions simulated
sim_ops                                     256045201                       # Number of ops (including micro ops) simulated
system.physmem.bytes_read::switch_cpus.inst        62336                       # Number of bytes read from this memory
system.physmem.bytes_read::switch_cpus.data      9518144                       # Number of bytes read from this memory
system.physmem.bytes_read::total              9580480                       # Number of bytes read from this memory
system.physmem.bytes_inst_read::switch_cpus.inst        62336                       # Number of instructions bytes read from this memory
system.physmem.bytes_inst_read::total           62336                       # Number of instructions bytes read from this memory
system.physmem.bytes_written::writebacks      4752704                       # Number of bytes written to this memory
system.physmem.bytes_written::total           4752704                       # Number of bytes written to this memory
system.physmem.num_reads::switch_cpus.inst          974                       # Number of read requests responded to by this memory
system.physmem.num_reads::switch_cpus.data       148721                       # Number of read requests responded to by this memory
system.physmem.num_reads::total                149695                       # Number of read requests responded to by this memory
system.physmem.num_writes::writebacks           74261                       # Number of write requests responded to by this memory
system.physmem.num_writes::total                74261                       # Number of write requests responded to by this memory
system.physmem.bw_read::switch_cpus.inst      1115960                       # Total read bandwidth from this memory (bytes/s)
system.physmem.bw_read::switch_cpus.data    170396956                       # Total read bandwidth from this memory (bytes/s)
system.physmem.bw_read::total               171512915                       # Total read bandwidth from this memory (bytes/s)
system.physmem.bw_inst_read::switch_cpus.inst      1115960                       # Instruction read bandwidth from this memory (bytes/s)
system.physmem.bw_inst_read::total            1115960                       # Instruction read bandwidth from this memory (bytes/s)
system.physmem.bw_write::writebacks          85084476                       # Write bandwidth from this memory (bytes/s)
system.physmem.bw_write::total               85084476                       # Write bandwidth from this memory (bytes/s)
system.physmem.bw_total::writebacks          85084476                       # Total bandwidth to/from this memory (bytes/s)
system.physmem.bw_total::switch_cpus.inst      1115960                       # Total bandwidth to/from this memory (bytes/s)
system.physmem.bw_total::switch_cpus.data    170396956                       # Total bandwidth to/from this memory (bytes/s)
system.physmem.bw_total::total              256597391                       # Total bandwidth to/from this memory (bytes/s)
system.physmem.readReqs                        149696                       # Total number of read requests seen
system.physmem.writeReqs                        74261                       # Total number of write requests seen
system.physmem.cpureqs                         223957                       # Reqs generatd by CPU via cache - shady
system.physmem.bytesRead                      9580480                       # Total number of bytes read from memory
system.physmem.bytesWritten                   4752704                       # Total number of bytes written to memory
system.physmem.bytesConsumedRd                9580480                       # bytesRead derated as per pkt->getSize()
system.physmem.bytesConsumedWr                4752704                       # bytesWritten derated as per pkt->getSize()
system.physmem.servicedByWrQ                       17                       # Number of read reqs serviced by write Q
system.physmem.neitherReadNorWrite                  0                       # Reqs where no action is needed
system.physmem.perBankRdReqs::0                  9643                       # Track reads on a per bank basis
system.physmem.perBankRdReqs::1                  9539                       # Track reads on a per bank basis
system.physmem.perBankRdReqs::2                  9483                       # Track reads on a per bank basis
system.physmem.perBankRdReqs::3                  9240                       # Track reads on a per bank basis
system.physmem.perBankRdReqs::4                  9388                       # Track reads on a per bank basis
system.physmem.perBankRdReqs::5                  9265                       # Track reads on a per bank basis
system.physmem.perBankRdReqs::6                  9263                       # Track reads on a per bank basis
system.physmem.perBankRdReqs::7                  9306                       # Track reads on a per bank basis
system.physmem.perBankRdReqs::8                  9243                       # Track reads on a per bank basis
system.physmem.perBankRdReqs::9                  9256                       # Track reads on a per bank basis
system.physmem.perBankRdReqs::10                 9262                       # Track reads on a per bank basis
system.physmem.perBankRdReqs::11                 9372                       # Track reads on a per bank basis
system.physmem.perBankRdReqs::12                 9405                       # Track reads on a per bank basis
system.physmem.perBankRdReqs::13                 9347                       # Track reads on a per bank basis
system.physmem.perBankRdReqs::14                 9268                       # Track reads on a per bank basis
system.physmem.perBankRdReqs::15                 9399                       # Track reads on a per bank basis
system.physmem.perBankWrReqs::0                  4736                       # Track writes on a per bank basis
system.physmem.perBankWrReqs::1                  4736                       # Track writes on a per bank basis
system.physmem.perBankWrReqs::2                  4736                       # Track writes on a per bank basis
system.physmem.perBankWrReqs::3                  4613                       # Track writes on a per bank basis
system.physmem.perBankWrReqs::4                  4616                       # Track writes on a per bank basis
system.physmem.perBankWrReqs::5                  4654                       # Track writes on a per bank basis
system.physmem.perBankWrReqs::6                  4608                       # Track writes on a per bank basis
system.physmem.perBankWrReqs::7                  4608                       # Track writes on a per bank basis
system.physmem.perBankWrReqs::8                  4608                       # Track writes on a per bank basis
system.physmem.perBankWrReqs::9                  4608                       # Track writes on a per bank basis
system.physmem.perBankWrReqs::10                 4609                       # Track writes on a per bank basis
system.physmem.perBankWrReqs::11                 4659                       # Track writes on a per bank basis
system.physmem.perBankWrReqs::12                 4640                       # Track writes on a per bank basis
system.physmem.perBankWrReqs::13                 4608                       # Track writes on a per bank basis
system.physmem.perBankWrReqs::14                 4614                       # Track writes on a per bank basis
system.physmem.perBankWrReqs::15                 4608                       # Track writes on a per bank basis
system.physmem.numRdRetry                           0                       # Number of times rd buffer was full causing retry
system.physmem.numWrRetry                           0                       # Number of times wr buffer was full causing retry
system.physmem.totGap                     55858620500                       # Total gap between requests
system.physmem.readPktSize::0                       0                       # Categorize read packet sizes
system.physmem.readPktSize::1                       0                       # Categorize read packet sizes
system.physmem.readPktSize::2                       0                       # Categorize read packet sizes
system.physmem.readPktSize::3                       0                       # Categorize read packet sizes
system.physmem.readPktSize::4                       0                       # Categorize read packet sizes
system.physmem.readPktSize::5                       0                       # Categorize read packet sizes
system.physmem.readPktSize::6                  149696                       # Categorize read packet sizes
system.physmem.writePktSize::0                      0                       # Categorize write packet sizes
system.physmem.writePktSize::1                      0                       # Categorize write packet sizes
system.physmem.writePktSize::2                      0                       # Categorize write packet sizes
system.physmem.writePktSize::3                      0                       # Categorize write packet sizes
system.physmem.writePktSize::4                      0                       # Categorize write packet sizes
system.physmem.writePktSize::5                      0                       # Categorize write packet sizes
system.physmem.writePktSize::6                  74261                       # Categorize write packet sizes
system.physmem.rdQLenPdf::0                    149169                       # What read queue length does an incoming req see
system.physmem.rdQLenPdf::1                       375                       # What read queue length does an incoming req see
system.physmem.rdQLenPdf::2                       105                       # What read queue length does an incoming req see
system.physmem.rdQLenPdf::3                        25                       # What read queue length does an incoming req see
system.physmem.rdQLenPdf::4                         4                       # What read queue length does an incoming req see
system.physmem.rdQLenPdf::5                         1                       # What read queue length does an incoming req see
system.physmem.rdQLenPdf::6                         0                       # What read queue length does an incoming req see
system.physmem.rdQLenPdf::7                         0                       # What read queue length does an incoming req see
system.physmem.rdQLenPdf::8                         0                       # What read queue length does an incoming req see
system.physmem.rdQLenPdf::9                         0                       # What read queue length does an incoming req see
system.physmem.rdQLenPdf::10                        0                       # What read queue length does an incoming req see
system.physmem.rdQLenPdf::11                        0                       # What read queue length does an incoming req see
system.physmem.rdQLenPdf::12                        0                       # What read queue length does an incoming req see
system.physmem.rdQLenPdf::13                        0                       # What read queue length does an incoming req see
system.physmem.rdQLenPdf::14                        0                       # What read queue length does an incoming req see
system.physmem.rdQLenPdf::15                        0                       # What read queue length does an incoming req see
system.physmem.rdQLenPdf::16                        0                       # What read queue length does an incoming req see
system.physmem.rdQLenPdf::17                        0                       # What read queue length does an incoming req see
system.physmem.rdQLenPdf::18                        0                       # What read queue length does an incoming req see
system.physmem.rdQLenPdf::19                        0                       # What read queue length does an incoming req see
system.physmem.rdQLenPdf::20                        0                       # What read queue length does an incoming req see
system.physmem.rdQLenPdf::21                        0                       # What read queue length does an incoming req see
system.physmem.rdQLenPdf::22                        0                       # What read queue length does an incoming req see
system.physmem.rdQLenPdf::23                        0                       # What read queue length does an incoming req see
system.physmem.rdQLenPdf::24                        0                       # What read queue length does an incoming req see
system.physmem.rdQLenPdf::25                        0                       # What read queue length does an incoming req see
system.physmem.rdQLenPdf::26                        0                       # What read queue length does an incoming req see
system.physmem.rdQLenPdf::27                        0                       # What read queue length does an incoming req see
system.physmem.rdQLenPdf::28                        0                       # What read queue length does an incoming req see
system.physmem.rdQLenPdf::29                        0                       # What read queue length does an incoming req see
system.physmem.rdQLenPdf::30                        0                       # What read queue length does an incoming req see
system.physmem.rdQLenPdf::31                        0                       # What read queue length does an incoming req see
system.physmem.wrQLenPdf::0                      3222                       # What write queue length does an incoming req see
system.physmem.wrQLenPdf::1                      3229                       # What write queue length does an incoming req see
system.physmem.wrQLenPdf::2                      3229                       # What write queue length does an incoming req see
system.physmem.wrQLenPdf::3                      3229                       # What write queue length does an incoming req see
system.physmem.wrQLenPdf::4                      3229                       # What write queue length does an incoming req see
system.physmem.wrQLenPdf::5                      3229                       # What write queue length does an incoming req see
system.physmem.wrQLenPdf::6                      3229                       # What write queue length does an incoming req see
system.physmem.wrQLenPdf::7                      3229                       # What write queue length does an incoming req see
system.physmem.wrQLenPdf::8                      3229                       # What write queue length does an incoming req see
system.physmem.wrQLenPdf::9                      3229                       # What write queue length does an incoming req see
system.physmem.wrQLenPdf::10                     3229                       # What write queue length does an incoming req see
system.physmem.wrQLenPdf::11                     3229                       # What write queue length does an incoming req see
system.physmem.wrQLenPdf::12                     3229                       # What write queue length does an incoming req see
system.physmem.wrQLenPdf::13                     3229                       # What write queue length does an incoming req see
system.physmem.wrQLenPdf::14                     3229                       # What write queue length does an incoming req see
system.physmem.wrQLenPdf::15                     3229                       # What write queue length does an incoming req see
system.physmem.wrQLenPdf::16                     3229                       # What write queue length does an incoming req see
system.physmem.wrQLenPdf::17                     3228                       # What write queue length does an incoming req see
system.physmem.wrQLenPdf::18                     3228                       # What write queue length does an incoming req see
system.physmem.wrQLenPdf::19                     3228                       # What write queue length does an incoming req see
system.physmem.wrQLenPdf::20                     3228                       # What write queue length does an incoming req see
system.physmem.wrQLenPdf::21                     3228                       # What write queue length does an incoming req see
system.physmem.wrQLenPdf::22                     3228                       # What write queue length does an incoming req see
system.physmem.wrQLenPdf::23                        7                       # What write queue length does an incoming req see
system.physmem.wrQLenPdf::24                        0                       # What write queue length does an incoming req see
system.physmem.wrQLenPdf::25                        0                       # What write queue length does an incoming req see
system.physmem.wrQLenPdf::26                        0                       # What write queue length does an incoming req see
system.physmem.wrQLenPdf::27                        0                       # What write queue length does an incoming req see
system.physmem.wrQLenPdf::28                        0                       # What write queue length does an incoming req see
system.physmem.wrQLenPdf::29                        0                       # What write queue length does an incoming req see
system.physmem.wrQLenPdf::30                        0                       # What write queue length does an incoming req see
system.physmem.wrQLenPdf::31                        0                       # What write queue length does an incoming req see
system.physmem.bytesPerActivate::samples        10913                       # Bytes accessed per row activation
system.physmem.bytesPerActivate::mean     1309.129295                       # Bytes accessed per row activation
system.physmem.bytesPerActivate::gmean     568.091607                       # Bytes accessed per row activation
system.physmem.bytesPerActivate::stdev    2000.248129                       # Bytes accessed per row activation
system.physmem.bytesPerActivate::64-65           1611     14.76%     14.76% # Bytes accessed per row activation
system.physmem.bytesPerActivate::128-129         1018      9.33%     24.09% # Bytes accessed per row activation
system.physmem.bytesPerActivate::192-193          339      3.11%     27.20% # Bytes accessed per row activation
system.physmem.bytesPerActivate::256-257          212      1.94%     29.14% # Bytes accessed per row activation
system.physmem.bytesPerActivate::320-321          237      2.17%     31.31% # Bytes accessed per row activation
system.physmem.bytesPerActivate::384-385          261      2.39%     33.70% # Bytes accessed per row activation
system.physmem.bytesPerActivate::448-449          447      4.10%     37.80% # Bytes accessed per row activation
system.physmem.bytesPerActivate::512-513          628      5.75%     43.55% # Bytes accessed per row activation
system.physmem.bytesPerActivate::576-577          250      2.29%     45.84% # Bytes accessed per row activation
system.physmem.bytesPerActivate::640-641          197      1.81%     47.65% # Bytes accessed per row activation
system.physmem.bytesPerActivate::704-705          168      1.54%     49.19% # Bytes accessed per row activation
system.physmem.bytesPerActivate::768-769          174      1.59%     50.78% # Bytes accessed per row activation
system.physmem.bytesPerActivate::832-833          170      1.56%     52.34% # Bytes accessed per row activation
system.physmem.bytesPerActivate::896-897          273      2.50%     54.84% # Bytes accessed per row activation
system.physmem.bytesPerActivate::960-961          786      7.20%     62.05% # Bytes accessed per row activation
system.physmem.bytesPerActivate::1024-1025          466      4.27%     66.32% # Bytes accessed per row activation
system.physmem.bytesPerActivate::1088-1089          199      1.82%     68.14% # Bytes accessed per row activation
system.physmem.bytesPerActivate::1152-1153          204      1.87%     70.01% # Bytes accessed per row activation
system.physmem.bytesPerActivate::1216-1217          158      1.45%     71.46% # Bytes accessed per row activation
system.physmem.bytesPerActivate::1280-1281          180      1.65%     73.11% # Bytes accessed per row activation
system.physmem.bytesPerActivate::1344-1345          183      1.68%     74.78% # Bytes accessed per row activation
system.physmem.bytesPerActivate::1408-1409          262      2.40%     77.18% # Bytes accessed per row activation
system.physmem.bytesPerActivate::1472-1473         1011      9.26%     86.45% # Bytes accessed per row activation
system.physmem.bytesPerActivate::1536-1537           63      0.58%     87.02% # Bytes accessed per row activation
system.physmem.bytesPerActivate::1600-1601           46      0.42%     87.45% # Bytes accessed per row activation
system.physmem.bytesPerActivate::1664-1665           48      0.44%     87.89% # Bytes accessed per row activation
system.physmem.bytesPerActivate::1728-1729           35      0.32%     88.21% # Bytes accessed per row activation
system.physmem.bytesPerActivate::1792-1793           24      0.22%     88.43% # Bytes accessed per row activation
system.physmem.bytesPerActivate::1856-1857           24      0.22%     88.65% # Bytes accessed per row activation
system.physmem.bytesPerActivate::1920-1921           24      0.22%     88.87% # Bytes accessed per row activation
system.physmem.bytesPerActivate::1984-1985           24      0.22%     89.09% # Bytes accessed per row activation
system.physmem.bytesPerActivate::2048-2049           13      0.12%     89.21% # Bytes accessed per row activation
system.physmem.bytesPerActivate::2112-2113           22      0.20%     89.41% # Bytes accessed per row activation
system.physmem.bytesPerActivate::2176-2177           20      0.18%     89.59% # Bytes accessed per row activation
system.physmem.bytesPerActivate::2240-2241           17      0.16%     89.75% # Bytes accessed per row activation
system.physmem.bytesPerActivate::2304-2305           14      0.13%     89.87% # Bytes accessed per row activation
system.physmem.bytesPerActivate::2368-2369           10      0.09%     89.97% # Bytes accessed per row activation
system.physmem.bytesPerActivate::2432-2433           14      0.13%     90.09% # Bytes accessed per row activation
system.physmem.bytesPerActivate::2496-2497           12      0.11%     90.20% # Bytes accessed per row activation
system.physmem.bytesPerActivate::2560-2561            9      0.08%     90.29% # Bytes accessed per row activation
system.physmem.bytesPerActivate::2624-2625            6      0.05%     90.34% # Bytes accessed per row activation
system.physmem.bytesPerActivate::2688-2689           11      0.10%     90.44% # Bytes accessed per row activation
system.physmem.bytesPerActivate::2752-2753            9      0.08%     90.53% # Bytes accessed per row activation
system.physmem.bytesPerActivate::2816-2817            4      0.04%     90.56% # Bytes accessed per row activation
system.physmem.bytesPerActivate::2880-2881           10      0.09%     90.65% # Bytes accessed per row activation
system.physmem.bytesPerActivate::2944-2945           16      0.15%     90.80% # Bytes accessed per row activation
system.physmem.bytesPerActivate::3008-3009            6      0.05%     90.85% # Bytes accessed per row activation
system.physmem.bytesPerActivate::3072-3073            8      0.07%     90.93% # Bytes accessed per row activation
system.physmem.bytesPerActivate::3136-3137            5      0.05%     90.97% # Bytes accessed per row activation
system.physmem.bytesPerActivate::3200-3201           10      0.09%     91.07% # Bytes accessed per row activation
system.physmem.bytesPerActivate::3264-3265            5      0.05%     91.11% # Bytes accessed per row activation
system.physmem.bytesPerActivate::3328-3329           11      0.10%     91.21% # Bytes accessed per row activation
system.physmem.bytesPerActivate::3392-3393            4      0.04%     91.25% # Bytes accessed per row activation
system.physmem.bytesPerActivate::3456-3457           10      0.09%     91.34% # Bytes accessed per row activation
system.physmem.bytesPerActivate::3520-3521            8      0.07%     91.41% # Bytes accessed per row activation
system.physmem.bytesPerActivate::3584-3585            1      0.01%     91.42% # Bytes accessed per row activation
system.physmem.bytesPerActivate::3648-3649            5      0.05%     91.47% # Bytes accessed per row activation
system.physmem.bytesPerActivate::3712-3713            3      0.03%     91.50% # Bytes accessed per row activation
system.physmem.bytesPerActivate::3776-3777            3      0.03%     91.52% # Bytes accessed per row activation
system.physmem.bytesPerActivate::3840-3841            5      0.05%     91.57% # Bytes accessed per row activation
system.physmem.bytesPerActivate::3904-3905            7      0.06%     91.63% # Bytes accessed per row activation
system.physmem.bytesPerActivate::3968-3969            7      0.06%     91.70% # Bytes accessed per row activation
system.physmem.bytesPerActivate::4032-4033            7      0.06%     91.76% # Bytes accessed per row activation
system.physmem.bytesPerActivate::4096-4097            5      0.05%     91.81% # Bytes accessed per row activation
system.physmem.bytesPerActivate::4160-4161            5      0.05%     91.85% # Bytes accessed per row activation
system.physmem.bytesPerActivate::4224-4225            3      0.03%     91.88% # Bytes accessed per row activation
system.physmem.bytesPerActivate::4288-4289           11      0.10%     91.98% # Bytes accessed per row activation
system.physmem.bytesPerActivate::4352-4353            7      0.06%     92.05% # Bytes accessed per row activation
system.physmem.bytesPerActivate::4416-4417            8      0.07%     92.12% # Bytes accessed per row activation
system.physmem.bytesPerActivate::4480-4481            5      0.05%     92.17% # Bytes accessed per row activation
system.physmem.bytesPerActivate::4544-4545            4      0.04%     92.20% # Bytes accessed per row activation
system.physmem.bytesPerActivate::4608-4609            2      0.02%     92.22% # Bytes accessed per row activation
system.physmem.bytesPerActivate::4672-4673            1      0.01%     92.23% # Bytes accessed per row activation
system.physmem.bytesPerActivate::4736-4737            4      0.04%     92.27% # Bytes accessed per row activation
system.physmem.bytesPerActivate::4800-4801            4      0.04%     92.30% # Bytes accessed per row activation
system.physmem.bytesPerActivate::4864-4865            3      0.03%     92.33% # Bytes accessed per row activation
system.physmem.bytesPerActivate::4928-4929            9      0.08%     92.41% # Bytes accessed per row activation
system.physmem.bytesPerActivate::4992-4993            2      0.02%     92.43% # Bytes accessed per row activation
system.physmem.bytesPerActivate::5056-5057            2      0.02%     92.45% # Bytes accessed per row activation
system.physmem.bytesPerActivate::5120-5121            5      0.05%     92.50% # Bytes accessed per row activation
system.physmem.bytesPerActivate::5184-5185            1      0.01%     92.50% # Bytes accessed per row activation
system.physmem.bytesPerActivate::5248-5249            5      0.05%     92.55% # Bytes accessed per row activation
system.physmem.bytesPerActivate::5312-5313            2      0.02%     92.57% # Bytes accessed per row activation
system.physmem.bytesPerActivate::5376-5377            5      0.05%     92.61% # Bytes accessed per row activation
system.physmem.bytesPerActivate::5440-5441            4      0.04%     92.65% # Bytes accessed per row activation
system.physmem.bytesPerActivate::5504-5505            2      0.02%     92.67% # Bytes accessed per row activation
system.physmem.bytesPerActivate::5568-5569            4      0.04%     92.71% # Bytes accessed per row activation
system.physmem.bytesPerActivate::5632-5633            7      0.06%     92.77% # Bytes accessed per row activation
system.physmem.bytesPerActivate::5696-5697            2      0.02%     92.79% # Bytes accessed per row activation
system.physmem.bytesPerActivate::5760-5761            6      0.05%     92.84% # Bytes accessed per row activation
system.physmem.bytesPerActivate::5888-5889            2      0.02%     92.86% # Bytes accessed per row activation
system.physmem.bytesPerActivate::5952-5953            4      0.04%     92.90% # Bytes accessed per row activation
system.physmem.bytesPerActivate::6016-6017            1      0.01%     92.91% # Bytes accessed per row activation
system.physmem.bytesPerActivate::6080-6081            6      0.05%     92.96% # Bytes accessed per row activation
system.physmem.bytesPerActivate::6144-6145            4      0.04%     93.00% # Bytes accessed per row activation
system.physmem.bytesPerActivate::6208-6209            5      0.05%     93.04% # Bytes accessed per row activation
system.physmem.bytesPerActivate::6272-6273            5      0.05%     93.09% # Bytes accessed per row activation
system.physmem.bytesPerActivate::6336-6337            4      0.04%     93.13% # Bytes accessed per row activation
system.physmem.bytesPerActivate::6400-6401            3      0.03%     93.15% # Bytes accessed per row activation
system.physmem.bytesPerActivate::6528-6529            2      0.02%     93.17% # Bytes accessed per row activation
system.physmem.bytesPerActivate::6592-6593            5      0.05%     93.22% # Bytes accessed per row activation
system.physmem.bytesPerActivate::6656-6657            5      0.05%     93.26% # Bytes accessed per row activation
system.physmem.bytesPerActivate::6720-6721            6      0.05%     93.32% # Bytes accessed per row activation
system.physmem.bytesPerActivate::6784-6785            3      0.03%     93.35% # Bytes accessed per row activation
system.physmem.bytesPerActivate::6848-6849            2      0.02%     93.37% # Bytes accessed per row activation
system.physmem.bytesPerActivate::6912-6913            4      0.04%     93.40% # Bytes accessed per row activation
system.physmem.bytesPerActivate::6976-6977            2      0.02%     93.42% # Bytes accessed per row activation
system.physmem.bytesPerActivate::7040-7041            4      0.04%     93.46% # Bytes accessed per row activation
system.physmem.bytesPerActivate::7104-7105            3      0.03%     93.48% # Bytes accessed per row activation
system.physmem.bytesPerActivate::7168-7169            5      0.05%     93.53% # Bytes accessed per row activation
system.physmem.bytesPerActivate::7232-7233            7      0.06%     93.59% # Bytes accessed per row activation
system.physmem.bytesPerActivate::7296-7297            3      0.03%     93.62% # Bytes accessed per row activation
system.physmem.bytesPerActivate::7360-7361            7      0.06%     93.69% # Bytes accessed per row activation
system.physmem.bytesPerActivate::7424-7425            6      0.05%     93.74% # Bytes accessed per row activation
system.physmem.bytesPerActivate::7488-7489            8      0.07%     93.81% # Bytes accessed per row activation
system.physmem.bytesPerActivate::7552-7553            3      0.03%     93.84% # Bytes accessed per row activation
system.physmem.bytesPerActivate::7616-7617            8      0.07%     93.92% # Bytes accessed per row activation
system.physmem.bytesPerActivate::7680-7681            2      0.02%     93.93% # Bytes accessed per row activation
system.physmem.bytesPerActivate::7744-7745            1      0.01%     93.94% # Bytes accessed per row activation
system.physmem.bytesPerActivate::7808-7809            4      0.04%     93.98% # Bytes accessed per row activation
system.physmem.bytesPerActivate::7872-7873            5      0.05%     94.03% # Bytes accessed per row activation
system.physmem.bytesPerActivate::7936-7937            6      0.05%     94.08% # Bytes accessed per row activation
system.physmem.bytesPerActivate::8000-8001            7      0.06%     94.14% # Bytes accessed per row activation
system.physmem.bytesPerActivate::8064-8065            6      0.05%     94.20% # Bytes accessed per row activation
system.physmem.bytesPerActivate::8128-8129           18      0.16%     94.36% # Bytes accessed per row activation
system.physmem.bytesPerActivate::8192-8193          615      5.64%    100.00% # Bytes accessed per row activation
system.physmem.bytesPerActivate::total          10913                       # Bytes accessed per row activation
system.physmem.totQLat                      120771000                       # Total cycles spent in queuing delays
system.physmem.totMemAccLat                3054068500                       # Sum of mem lat for all requests
system.physmem.totBusLat                    748395000                       # Total cycles spent in databus access
system.physmem.totBankLat                  2184902500                       # Total cycles spent in bank access
system.physmem.avgQLat                         806.87                       # Average queueing delay per request
system.physmem.avgBankLat                    14597.25                       # Average bank access latency per request
system.physmem.avgBusLat                      5000.00                       # Average bus latency per request
system.physmem.avgMemAccLat                  20404.12                       # Average memory access latency
system.physmem.avgRdBW                         171.51                       # Average achieved read bandwidth in MB/s
system.physmem.avgWrBW                          85.08                       # Average achieved write bandwidth in MB/s
system.physmem.avgConsumedRdBW                 171.51                       # Average consumed read bandwidth in MB/s
system.physmem.avgConsumedWrBW                  85.08                       # Average consumed write bandwidth in MB/s
system.physmem.peakBW                        12800.00                       # Theoretical peak bandwidth in MB/s
system.physmem.busUtil                           2.00                       # Data bus utilization in percentage
system.physmem.avgRdQLen                         0.05                       # Average read queue length over time
system.physmem.avgWrQLen                        11.51                       # Average write queue length over time
system.physmem.readRowHits                     143100                       # Number of row buffer hits during reads
system.physmem.writeRowHits                     69910                       # Number of row buffer hits during writes
system.physmem.readRowHitRate                   95.60                       # Row buffer hit rate for reads
system.physmem.writeRowHitRate                  94.14                       # Row buffer hit rate for writes
system.physmem.avgGap                       249416.72                       # Average gap between requests
system.membus.throughput                    256596246                       # Throughput (bytes/s)
system.membus.trans_dist::ReadReq               75366                       # Transaction distribution
system.membus.trans_dist::ReadResp              75364                       # Transaction distribution
system.membus.trans_dist::Writeback             74261                       # Transaction distribution
system.membus.trans_dist::ReadExReq             74330                       # Transaction distribution
system.membus.trans_dist::ReadExResp            74330                       # Transaction distribution
system.membus.pkt_count_system.l2.mem_side       373651                       # Packet count per connected master and slave (bytes)
system.membus.pkt_count                        373651                       # Packet count per connected master and slave (bytes)
system.membus.tot_pkt_size_system.l2.mem_side     14333120                       # Cumulative packet size per connected master and slave (bytes)
system.membus.tot_pkt_size                   14333120                       # Cumulative packet size per connected master and slave (bytes)
system.membus.data_through_bus               14333120                       # Total data (bytes)
system.membus.snoop_data_through_bus                0                       # Total snoop data (bytes)
system.membus.reqLayer0.occupancy           409022500                       # Layer occupancy (ticks)
system.membus.reqLayer0.utilization               0.7                       # Layer utilization (%)
system.membus.respLayer1.occupancy          710054500                       # Layer occupancy (ticks)
system.membus.respLayer1.utilization              1.3                       # Layer utilization (%)
system.switch_cpus.branchPred.lookups         8741113                       # Number of BP lookups
system.switch_cpus.branchPred.condPredicted      3030926                       # Number of conditional branches predicted
system.switch_cpus.branchPred.condIncorrect         7925                       # Number of conditional branches incorrect
system.switch_cpus.branchPred.BTBLookups      5557666                       # Number of BTB lookups
system.switch_cpus.branchPred.BTBHits         5550033                       # Number of BTB hits
system.switch_cpus.branchPred.BTBCorrect            0                       # Number of correct BTB predictions (this stat may not work properly.
system.switch_cpus.branchPred.BTBHitPct     99.862658                       # BTB Hit Percentage
system.switch_cpus.branchPred.usedRAS         2851653                       # Number of times the RAS was used to get a target.
system.switch_cpus.branchPred.RASInCorrect          114                       # Number of incorrect RAS predictions.
system.switch_cpus.dtb.fetch_hits                   0                       # ITB hits
system.switch_cpus.dtb.fetch_misses                 0                       # ITB misses
system.switch_cpus.dtb.fetch_acv                    0                       # ITB acv
system.switch_cpus.dtb.fetch_accesses               0                       # ITB accesses
system.switch_cpus.dtb.read_hits             73104821                       # DTB read hits
system.switch_cpus.dtb.read_misses               1416                       # DTB read misses
system.switch_cpus.dtb.read_acv                     1                       # DTB read access violations
system.switch_cpus.dtb.read_accesses         73106237                       # DTB read accesses
system.switch_cpus.dtb.write_hits            24466775                       # DTB write hits
system.switch_cpus.dtb.write_misses               715                       # DTB write misses
system.switch_cpus.dtb.write_acv                    0                       # DTB write access violations
system.switch_cpus.dtb.write_accesses        24467490                       # DTB write accesses
system.switch_cpus.dtb.data_hits             97571596                       # DTB hits
system.switch_cpus.dtb.data_misses               2131                       # DTB misses
system.switch_cpus.dtb.data_acv                     1                       # DTB access violations
system.switch_cpus.dtb.data_accesses         97573727                       # DTB accesses
system.switch_cpus.itb.fetch_hits            23375535                       # ITB hits
system.switch_cpus.itb.fetch_misses               101                       # ITB misses
system.switch_cpus.itb.fetch_acv                    0                       # ITB acv
system.switch_cpus.itb.fetch_accesses        23375636                       # ITB accesses
system.switch_cpus.itb.read_hits                    0                       # DTB read hits
system.switch_cpus.itb.read_misses                  0                       # DTB read misses
system.switch_cpus.itb.read_acv                     0                       # DTB read access violations
system.switch_cpus.itb.read_accesses                0                       # DTB read accesses
system.switch_cpus.itb.write_hits                   0                       # DTB write hits
system.switch_cpus.itb.write_misses                 0                       # DTB write misses
system.switch_cpus.itb.write_acv                    0                       # DTB write access violations
system.switch_cpus.itb.write_accesses               0                       # DTB write accesses
system.switch_cpus.itb.data_hits                    0                       # DTB hits
system.switch_cpus.itb.data_misses                  0                       # DTB misses
system.switch_cpus.itb.data_acv                     0                       # DTB access violations
system.switch_cpus.itb.data_accesses                0                       # DTB accesses
system.cpu.workload.num_syscalls                  166                       # Number of system calls
system.switch_cpus.numCycles                111717301                       # number of cpu cycles simulated
system.switch_cpus.numWorkItemsStarted              0                       # number of work items this cpu started
system.switch_cpus.numWorkItemsCompleted            0                       # number of work items this cpu completed
system.switch_cpus.fetch.icacheStallCycles     23405624                       # Number of cycles fetch is stalled on an Icache miss
system.switch_cpus.fetch.Insts              265160159                       # Number of instructions fetch has processed
system.switch_cpus.fetch.Branches             8741113                       # Number of branches that fetch encountered
system.switch_cpus.fetch.predictedBranches      8401686                       # Number of branches that fetch has predicted taken
system.switch_cpus.fetch.Cycles              38730457                       # Number of cycles fetch has run and was not squashing or blocked
system.switch_cpus.fetch.SquashCycles           69435                       # Number of cycles fetch has spent squashing
system.switch_cpus.fetch.BlockedCycles       39760917                       # Number of cycles fetch has spent blocked
system.switch_cpus.fetch.MiscStallCycles           63                       # Number of cycles fetch has spent waiting on interrupts, or bad addresses, or out of MSHRs
system.switch_cpus.fetch.PendingTrapStallCycles         1499                       # Number of stall cycles due to pending traps
system.switch_cpus.fetch.IcacheWaitRetryStallCycles           50                       # Number of stall cycles due to full MSHR
system.switch_cpus.fetch.CacheLines          23375535                       # Number of cache lines fetched
system.switch_cpus.fetch.IcacheSquashes          3473                       # Number of outstanding Icache misses that were squashed
system.switch_cpus.fetch.rateDist::samples    101954568                       # Number of instructions fetched each cycle (Total)
system.switch_cpus.fetch.rateDist::mean      2.600768                       # Number of instructions fetched each cycle (Total)
system.switch_cpus.fetch.rateDist::stdev     3.578011                       # Number of instructions fetched each cycle (Total)
system.switch_cpus.fetch.rateDist::underflows            0      0.00%      0.00% # Number of instructions fetched each cycle (Total)
system.switch_cpus.fetch.rateDist::0         63224111     62.01%     62.01% # Number of instructions fetched each cycle (Total)
system.switch_cpus.fetch.rateDist::1          1351513      1.33%     63.34% # Number of instructions fetched each cycle (Total)
system.switch_cpus.fetch.rateDist::2          2568723      2.52%     65.86% # Number of instructions fetched each cycle (Total)
system.switch_cpus.fetch.rateDist::3          1275182      1.25%     67.11% # Number of instructions fetched each cycle (Total)
system.switch_cpus.fetch.rateDist::4          1539039      1.51%     68.62% # Number of instructions fetched each cycle (Total)
system.switch_cpus.fetch.rateDist::5           800012      0.78%     69.40% # Number of instructions fetched each cycle (Total)
system.switch_cpus.fetch.rateDist::6          1882377      1.85%     71.25% # Number of instructions fetched each cycle (Total)
system.switch_cpus.fetch.rateDist::7          1113712      1.09%     72.34% # Number of instructions fetched each cycle (Total)
system.switch_cpus.fetch.rateDist::8         28199899     27.66%    100.00% # Number of instructions fetched each cycle (Total)
system.switch_cpus.fetch.rateDist::overflows            0      0.00%    100.00% # Number of instructions fetched each cycle (Total)
system.switch_cpus.fetch.rateDist::min_value            0                       # Number of instructions fetched each cycle (Total)
system.switch_cpus.fetch.rateDist::max_value            8                       # Number of instructions fetched each cycle (Total)
system.switch_cpus.fetch.rateDist::total    101954568                       # Number of instructions fetched each cycle (Total)
system.switch_cpus.fetch.branchRate          0.078243                       # Number of branch fetches per cycle
system.switch_cpus.fetch.rate                2.373492                       # Number of inst fetches per cycle
system.switch_cpus.decode.IdleCycles         31786898                       # Number of cycles decode is idle
system.switch_cpus.decode.BlockedCycles      31386864                       # Number of cycles decode is blocked
system.switch_cpus.decode.RunCycles          31870380                       # Number of cycles decode is running
system.switch_cpus.decode.UnblockCycles       6854934                       # Number of cycles decode is unblocking
system.switch_cpus.decode.SquashCycles          55491                       # Number of cycles decode is squashing
system.switch_cpus.decode.BranchResolved      2856751                       # Number of times decode resolved a branch
system.switch_cpus.decode.BranchMispred           484                       # Number of times decode detected a branch misprediction
system.switch_cpus.decode.DecodedInsts      265121478                       # Number of instructions handled by decode
system.switch_cpus.decode.SquashedInsts          1535                       # Number of squashed instructions handled by decode
system.switch_cpus.rename.SquashCycles          55491                       # Number of cycles rename is squashing
system.switch_cpus.rename.IdleCycles         33971537                       # Number of cycles rename is idle
system.switch_cpus.rename.BlockCycles        13779401                       # Number of cycles rename is blocking
system.switch_cpus.rename.serializeStallCycles       121435                       # count of cycles rename stalled for serializing inst
system.switch_cpus.rename.RunCycles          36558511                       # Number of cycles rename is running
system.switch_cpus.rename.UnblockCycles      17468192                       # Number of cycles rename is unblocking
system.switch_cpus.rename.RenamedInsts      265063868                       # Number of instructions processed by rename
system.switch_cpus.rename.ROBFullEvents            19                       # Number of times rename has blocked due to ROB full
system.switch_cpus.rename.IQFullEvents           4532                       # Number of times rename has blocked due to IQ full
system.switch_cpus.rename.LSQFullEvents      16067736                       # Number of times rename has blocked due to LSQ full
system.switch_cpus.rename.RenamedOperands    226128131                       # Number of destination operands rename has renamed
system.switch_cpus.rename.RenameLookups     370808747                       # Number of register rename lookups that rename has made
system.switch_cpus.rename.int_rename_lookups    258185978                       # Number of integer rename lookups
system.switch_cpus.rename.fp_rename_lookups    112622769                       # Number of floating rename lookups
system.switch_cpus.rename.CommittedMaps     225720229                       # Number of HB maps that are committed
system.switch_cpus.rename.UndoneMaps           407902                       # Number of HB maps that are undone due to squashing
system.switch_cpus.rename.serializingInsts         2514                       # count of serializing insts renamed
system.switch_cpus.rename.tempSerializingInsts         1605                       # count of temporary serializing insts renamed
system.switch_cpus.rename.skidInsts          52652094                       # count of insts added to the skid buffer
system.switch_cpus.memDep0.insertedLoads     73142044                       # Number of loads inserted to the mem dependence unit.
system.switch_cpus.memDep0.insertedStores     24489222                       # Number of stores inserted to the mem dependence unit.
system.switch_cpus.memDep0.conflictingLoads      9689948                       # Number of conflicting loads.
system.switch_cpus.memDep0.conflictingStores       753135                       # Number of conflicting stores.
system.switch_cpus.iq.iqInstsAdded          256446176                       # Number of instructions added to the IQ (excludes non-spec)
system.switch_cpus.iq.iqNonSpecInstsAdded         2992                       # Number of non-speculative instructions added to the IQ
system.switch_cpus.iq.iqInstsIssued         256254978                       # Number of instructions issued
system.switch_cpus.iq.iqSquashedInstsIssued         5095                       # Number of squashed instructions issued
system.switch_cpus.iq.iqSquashedInstsExamined       404115                       # Number of squashed instructions iterated over during squash; mainly for profiling
system.switch_cpus.iq.iqSquashedOperandsExamined       361305                       # Number of squashed operands that are examined and possibly removed from graph
system.switch_cpus.iq.iqSquashedNonSpecRemoved          119                       # Number of squashed non-spec instructions that were removed
system.switch_cpus.iq.issued_per_cycle::samples    101954568                       # Number of insts issued each cycle
system.switch_cpus.iq.issued_per_cycle::mean     2.513423                       # Number of insts issued each cycle
system.switch_cpus.iq.issued_per_cycle::stdev     1.591143                       # Number of insts issued each cycle
system.switch_cpus.iq.issued_per_cycle::underflows            0      0.00%      0.00% # Number of insts issued each cycle
system.switch_cpus.iq.issued_per_cycle::0     10745514     10.54%     10.54% # Number of insts issued each cycle
system.switch_cpus.iq.issued_per_cycle::1     18932580     18.57%     29.11% # Number of insts issued each cycle
system.switch_cpus.iq.issued_per_cycle::2     23549955     23.10%     52.21% # Number of insts issued each cycle
system.switch_cpus.iq.issued_per_cycle::3     21160337     20.75%     72.96% # Number of insts issued each cycle
system.switch_cpus.iq.issued_per_cycle::4     15048766     14.76%     87.72% # Number of insts issued each cycle
system.switch_cpus.iq.issued_per_cycle::5      9148598      8.97%     96.70% # Number of insts issued each cycle
system.switch_cpus.iq.issued_per_cycle::6      2865607      2.81%     99.51% # Number of insts issued each cycle
system.switch_cpus.iq.issued_per_cycle::7       415907      0.41%     99.91% # Number of insts issued each cycle
system.switch_cpus.iq.issued_per_cycle::8        87304      0.09%    100.00% # Number of insts issued each cycle
system.switch_cpus.iq.issued_per_cycle::overflows            0      0.00%    100.00% # Number of insts issued each cycle
system.switch_cpus.iq.issued_per_cycle::min_value            0                       # Number of insts issued each cycle
system.switch_cpus.iq.issued_per_cycle::max_value            8                       # Number of insts issued each cycle
system.switch_cpus.iq.issued_per_cycle::total    101954568                       # Number of insts issued each cycle
system.switch_cpus.iq.fu_full::No_OpClass            0      0.00%      0.00% # attempts to use FU when none available
system.switch_cpus.iq.fu_full::IntAlu           13312      0.41%      0.41% # attempts to use FU when none available
system.switch_cpus.iq.fu_full::IntMult              0      0.00%      0.41% # attempts to use FU when none available
system.switch_cpus.iq.fu_full::IntDiv               0      0.00%      0.41% # attempts to use FU when none available
system.switch_cpus.iq.fu_full::FloatAdd             0      0.00%      0.41% # attempts to use FU when none available
system.switch_cpus.iq.fu_full::FloatCmp             0      0.00%      0.41% # attempts to use FU when none available
system.switch_cpus.iq.fu_full::FloatCvt        436154     13.48%     13.90% # attempts to use FU when none available
system.switch_cpus.iq.fu_full::FloatMult       228056      7.05%     20.95% # attempts to use FU when none available
system.switch_cpus.iq.fu_full::FloatDiv             0      0.00%     20.95% # attempts to use FU when none available
system.switch_cpus.iq.fu_full::FloatSqrt            0      0.00%     20.95% # attempts to use FU when none available
system.switch_cpus.iq.fu_full::SimdAdd              0      0.00%     20.95% # attempts to use FU when none available
system.switch_cpus.iq.fu_full::SimdAddAcc            0      0.00%     20.95% # attempts to use FU when none available
system.switch_cpus.iq.fu_full::SimdAlu              0      0.00%     20.95% # attempts to use FU when none available
system.switch_cpus.iq.fu_full::SimdCmp              0      0.00%     20.95% # attempts to use FU when none available
system.switch_cpus.iq.fu_full::SimdCvt              0      0.00%     20.95% # attempts to use FU when none available
system.switch_cpus.iq.fu_full::SimdMisc             0      0.00%     20.95% # attempts to use FU when none available
system.switch_cpus.iq.fu_full::SimdMult             0      0.00%     20.95% # attempts to use FU when none available
system.switch_cpus.iq.fu_full::SimdMultAcc            0      0.00%     20.95% # attempts to use FU when none available
system.switch_cpus.iq.fu_full::SimdShift            0      0.00%     20.95% # attempts to use FU when none available
system.switch_cpus.iq.fu_full::SimdShiftAcc            0      0.00%     20.95% # attempts to use FU when none available
system.switch_cpus.iq.fu_full::SimdSqrt             0      0.00%     20.95% # attempts to use FU when none available
system.switch_cpus.iq.fu_full::SimdFloatAdd            0      0.00%     20.95% # attempts to use FU when none available
system.switch_cpus.iq.fu_full::SimdFloatAlu            0      0.00%     20.95% # attempts to use FU when none available
system.switch_cpus.iq.fu_full::SimdFloatCmp            0      0.00%     20.95% # attempts to use FU when none available
system.switch_cpus.iq.fu_full::SimdFloatCvt            0      0.00%     20.95% # attempts to use FU when none available
system.switch_cpus.iq.fu_full::SimdFloatDiv            0      0.00%     20.95% # attempts to use FU when none available
system.switch_cpus.iq.fu_full::SimdFloatMisc            0      0.00%     20.95% # attempts to use FU when none available
system.switch_cpus.iq.fu_full::SimdFloatMult            0      0.00%     20.95% # attempts to use FU when none available
system.switch_cpus.iq.fu_full::SimdFloatMultAcc            0      0.00%     20.95% # attempts to use FU when none available
system.switch_cpus.iq.fu_full::SimdFloatSqrt            0      0.00%     20.95% # attempts to use FU when none available
system.switch_cpus.iq.fu_full::MemRead        1219210     37.69%     58.64% # attempts to use FU when none available
system.switch_cpus.iq.fu_full::MemWrite       1337682     41.36%    100.00% # attempts to use FU when none available
system.switch_cpus.iq.fu_full::IprAccess            0      0.00%    100.00% # attempts to use FU when none available
system.switch_cpus.iq.fu_full::InstPrefetch            0      0.00%    100.00% # attempts to use FU when none available
system.switch_cpus.iq.FU_type_0::No_OpClass          124      0.00%      0.00% # Type of FU issued
system.switch_cpus.iq.FU_type_0::IntAlu      90339214     35.25%     35.25% # Type of FU issued
system.switch_cpus.iq.FU_type_0::IntMult      5697541      2.22%     37.48% # Type of FU issued
system.switch_cpus.iq.FU_type_0::IntDiv             0      0.00%     37.48% # Type of FU issued
system.switch_cpus.iq.FU_type_0::FloatAdd     38588749     15.06%     52.54% # Type of FU issued
system.switch_cpus.iq.FU_type_0::FloatCmp            3      0.00%     52.54% # Type of FU issued
system.switch_cpus.iq.FU_type_0::FloatCvt     14551614      5.68%     58.21% # Type of FU issued
system.switch_cpus.iq.FU_type_0::FloatMult      8540615      3.33%     61.55% # Type of FU issued
system.switch_cpus.iq.FU_type_0::FloatDiv       949098      0.37%     61.92% # Type of FU issued
system.switch_cpus.iq.FU_type_0::FloatSqrt            0      0.00%     61.92% # Type of FU issued
system.switch_cpus.iq.FU_type_0::SimdAdd            0      0.00%     61.92% # Type of FU issued
system.switch_cpus.iq.FU_type_0::SimdAddAcc            0      0.00%     61.92% # Type of FU issued
system.switch_cpus.iq.FU_type_0::SimdAlu            0      0.00%     61.92% # Type of FU issued
system.switch_cpus.iq.FU_type_0::SimdCmp            0      0.00%     61.92% # Type of FU issued
system.switch_cpus.iq.FU_type_0::SimdCvt            0      0.00%     61.92% # Type of FU issued
system.switch_cpus.iq.FU_type_0::SimdMisc            0      0.00%     61.92% # Type of FU issued
system.switch_cpus.iq.FU_type_0::SimdMult            0      0.00%     61.92% # Type of FU issued
system.switch_cpus.iq.FU_type_0::SimdMultAcc            0      0.00%     61.92% # Type of FU issued
system.switch_cpus.iq.FU_type_0::SimdShift            0      0.00%     61.92% # Type of FU issued
system.switch_cpus.iq.FU_type_0::SimdShiftAcc            0      0.00%     61.92% # Type of FU issued
system.switch_cpus.iq.FU_type_0::SimdSqrt            0      0.00%     61.92% # Type of FU issued
system.switch_cpus.iq.FU_type_0::SimdFloatAdd            0      0.00%     61.92% # Type of FU issued
system.switch_cpus.iq.FU_type_0::SimdFloatAlu            0      0.00%     61.92% # Type of FU issued
system.switch_cpus.iq.FU_type_0::SimdFloatCmp            0      0.00%     61.92% # Type of FU issued
system.switch_cpus.iq.FU_type_0::SimdFloatCvt            0      0.00%     61.92% # Type of FU issued
system.switch_cpus.iq.FU_type_0::SimdFloatDiv            0      0.00%     61.92% # Type of FU issued
system.switch_cpus.iq.FU_type_0::SimdFloatMisc            0      0.00%     61.92% # Type of FU issued
system.switch_cpus.iq.FU_type_0::SimdFloatMult            0      0.00%     61.92% # Type of FU issued
system.switch_cpus.iq.FU_type_0::SimdFloatMultAcc            0      0.00%     61.92% # Type of FU issued
system.switch_cpus.iq.FU_type_0::SimdFloatSqrt            0      0.00%     61.92% # Type of FU issued
system.switch_cpus.iq.FU_type_0::MemRead     73118840     28.53%     90.45% # Type of FU issued
system.switch_cpus.iq.FU_type_0::MemWrite     24469180      9.55%    100.00% # Type of FU issued
system.switch_cpus.iq.FU_type_0::IprAccess            0      0.00%    100.00% # Type of FU issued
system.switch_cpus.iq.FU_type_0::InstPrefetch            0      0.00%    100.00% # Type of FU issued
system.switch_cpus.iq.FU_type_0::total      256254978                       # Type of FU issued
system.switch_cpus.iq.rate                   2.293781                       # Inst issue rate
system.switch_cpus.iq.fu_busy_cnt             3234414                       # FU busy when requested
system.switch_cpus.iq.fu_busy_rate           0.012622                       # FU busy rate (busy events/executed inst)
system.switch_cpus.iq.int_inst_queue_reads    458871284                       # Number of integer instruction queue reads
system.switch_cpus.iq.int_inst_queue_writes    177741765                       # Number of integer instruction queue writes
system.switch_cpus.iq.int_inst_queue_wakeup_accesses    177132684                       # Number of integer instruction queue wakeup accesses
system.switch_cpus.iq.fp_inst_queue_reads    158832749                       # Number of floating instruction queue reads
system.switch_cpus.iq.fp_inst_queue_writes     79115431                       # Number of floating instruction queue writes
system.switch_cpus.iq.fp_inst_queue_wakeup_accesses     79081087                       # Number of floating instruction queue wakeup accesses
system.switch_cpus.iq.int_alu_accesses      179740360                       # Number of integer alu accesses
system.switch_cpus.iq.fp_alu_accesses        79748908                       # Number of floating point alu accesses
system.switch_cpus.iew.lsq.thread0.forwLoads      9867239                       # Number of loads that had data forwarded from stores
system.switch_cpus.iew.lsq.thread0.invAddrLoads            0                       # Number of loads ignored due to an invalid address
system.switch_cpus.iew.lsq.thread0.squashedLoads       129804                       # Number of loads squashed
system.switch_cpus.iew.lsq.thread0.ignoredResponses          201                       # Number of memory responses ignored because the instruction is squashed
system.switch_cpus.iew.lsq.thread0.memOrderViolation         3982                       # Number of memory ordering violations
system.switch_cpus.iew.lsq.thread0.squashedStores        37804                       # Number of stores squashed
system.switch_cpus.iew.lsq.thread0.invAddrSwpfs            0                       # Number of software prefetches ignored due to an invalid address
system.switch_cpus.iew.lsq.thread0.blockedLoads            0                       # Number of blocked loads due to partial load-store forwarding
system.switch_cpus.iew.lsq.thread0.rescheduledLoads           15                       # Number of loads that were rescheduled
system.switch_cpus.iew.lsq.thread0.cacheBlocked          694                       # Number of times an access to memory failed due to the cache being blocked
system.switch_cpus.iew.iewIdleCycles                0                       # Number of cycles IEW is idle
system.switch_cpus.iew.iewSquashCycles          55491                       # Number of cycles IEW is squashing
system.switch_cpus.iew.iewBlockCycles         4023072                       # Number of cycles IEW is blocking
system.switch_cpus.iew.iewUnblockCycles        315672                       # Number of cycles IEW is unblocking
system.switch_cpus.iew.iewDispatchedInsts    264999564                       # Number of instructions dispatched to IQ
system.switch_cpus.iew.iewDispSquashedInsts         2336                       # Number of squashed instructions skipped by dispatch
system.switch_cpus.iew.iewDispLoadInsts      73142044                       # Number of dispatched load instructions
system.switch_cpus.iew.iewDispStoreInsts     24489222                       # Number of dispatched store instructions
system.switch_cpus.iew.iewDispNonSpecInsts         1601                       # Number of dispatched non-speculative instructions
system.switch_cpus.iew.iewIQFullEvents           7772                       # Number of times the IQ has become full, causing a stall
system.switch_cpus.iew.iewLSQFullEvents         25447                       # Number of times the LSQ has become full, causing a stall
system.switch_cpus.iew.memOrderViolationEvents         3982                       # Number of memory order violations
system.switch_cpus.iew.predictedTakenIncorrect         4962                       # Number of branches that were predicted taken incorrectly
system.switch_cpus.iew.predictedNotTakenIncorrect         2897                       # Number of branches that were predicted not taken incorrectly
system.switch_cpus.iew.branchMispredicts         7859                       # Number of branch mispredicts detected at execute
system.switch_cpus.iew.iewExecutedInsts     256236095                       # Number of executed instructions
system.switch_cpus.iew.iewExecLoadInsts      73106249                       # Number of load instructions executed
system.switch_cpus.iew.iewExecSquashedInsts        18883                       # Number of squashed instructions skipped in execute
system.switch_cpus.iew.exec_swp                     0                       # number of swp insts executed
system.switch_cpus.iew.exec_nop               8550396                       # number of nop insts executed
system.switch_cpus.iew.exec_refs             97573740                       # number of memory reference insts executed
system.switch_cpus.iew.exec_branches          8730425                       # Number of branches executed
system.switch_cpus.iew.exec_stores           24467491                       # Number of stores executed
system.switch_cpus.iew.exec_rate             2.293612                       # Inst execution rate
system.switch_cpus.iew.wb_sent              256223356                       # cumulative count of insts sent to commit
system.switch_cpus.iew.wb_count             256213771                       # cumulative count of insts written-back
system.switch_cpus.iew.wb_producers         218217836                       # num instructions producing a value
system.switch_cpus.iew.wb_consumers         246107694                       # num instructions consuming a value
system.switch_cpus.iew.wb_penalized                 0                       # number of instrctions required to write to 'other' IQ
system.switch_cpus.iew.wb_rate               2.293412                       # insts written-back per cycle
system.switch_cpus.iew.wb_fanout             0.886676                       # average fanout of values written-back
system.switch_cpus.iew.wb_penalized_rate            0                       # fraction of instructions written-back that wrote to 'other' IQ
system.switch_cpus.commit.commitSquashedInsts       384279                       # The number of squashed insts skipped by commit
system.switch_cpus.commit.commitNonSpecStalls         2873                       # The number of times commit has been forced to stall to communicate backwards
system.switch_cpus.commit.branchMispredicts         7458                       # The number of times a branch was mispredicted
system.switch_cpus.commit.committed_per_cycle::samples    101899077                       # Number of insts commited each cycle
system.switch_cpus.commit.committed_per_cycle::mean     2.596588                       # Number of insts commited each cycle
system.switch_cpus.commit.committed_per_cycle::stdev     3.280316                       # Number of insts commited each cycle
system.switch_cpus.commit.committed_per_cycle::underflows            0      0.00%      0.00% # Number of insts commited each cycle
system.switch_cpus.commit.committed_per_cycle::0     39864339     39.12%     39.12% # Number of insts commited each cycle
system.switch_cpus.commit.committed_per_cycle::1     26557035     26.06%     65.18% # Number of insts commited each cycle
system.switch_cpus.commit.committed_per_cycle::2      3550498      3.48%     68.67% # Number of insts commited each cycle
system.switch_cpus.commit.committed_per_cycle::3      1793985      1.76%     70.43% # Number of insts commited each cycle
system.switch_cpus.commit.committed_per_cycle::4      1714054      1.68%     72.11% # Number of insts commited each cycle
system.switch_cpus.commit.committed_per_cycle::5      1123159      1.10%     73.21% # Number of insts commited each cycle
system.switch_cpus.commit.committed_per_cycle::6      1756033      1.72%     74.94% # Number of insts commited each cycle
system.switch_cpus.commit.committed_per_cycle::7      1778078      1.74%     76.68% # Number of insts commited each cycle
system.switch_cpus.commit.committed_per_cycle::8     23761896     23.32%    100.00% # Number of insts commited each cycle
system.switch_cpus.commit.committed_per_cycle::overflows            0      0.00%    100.00% # Number of insts commited each cycle
system.switch_cpus.commit.committed_per_cycle::min_value            0                       # Number of insts commited each cycle
system.switch_cpus.commit.committed_per_cycle::max_value            8                       # Number of insts commited each cycle
system.switch_cpus.commit.committed_per_cycle::total    101899077                       # Number of insts commited each cycle
system.switch_cpus.commit.committedInsts    264589909                       # Number of instructions committed
system.switch_cpus.commit.committedOps      264589909                       # Number of ops (including micro ops) committed
system.switch_cpus.commit.swp_count                 0                       # Number of s/w prefetches committed
system.switch_cpus.commit.refs               97463658                       # Number of memory references committed
system.switch_cpus.commit.loads              73012240                       # Number of loads committed
system.switch_cpus.commit.membars                1351                       # Number of memory barriers committed
system.switch_cpus.commit.branches            8720356                       # Number of branches committed
system.switch_cpus.commit.fp_insts           79058653                       # Number of committed floating point instructions.
system.switch_cpus.commit.int_insts         207968675                       # Number of committed integer instructions.
system.switch_cpus.commit.function_calls      2850486                       # Number of function calls committed.
system.switch_cpus.commit.bw_lim_events      23761896                       # number cycles where commit BW limit reached
system.switch_cpus.commit.bw_limited                0                       # number of insts not committed due to BW limits
system.switch_cpus.rob.rob_reads            343094482                       # The number of ROB reads
system.switch_cpus.rob.rob_writes           530004060                       # The number of ROB writes
system.switch_cpus.timesIdled                  148624                       # Number of times that the entire CPU went into an idle state and unscheduled itself
system.switch_cpus.idleCycles                 9762733                       # Total number of cycles that the CPU has spent unscheduled due to idling
system.switch_cpus.committedInsts           256041810                       # Number of Instructions Simulated
system.switch_cpus.committedOps             256041810                       # Number of Ops (including micro ops) Simulated
system.switch_cpus.committedInsts_total     256041810                       # Number of Instructions Simulated
system.switch_cpus.cpi                       0.436324                       # CPI: Cycles Per Instruction
system.switch_cpus.cpi_total                 0.436324                       # CPI: Total CPI of All Threads
system.switch_cpus.ipc                       2.291873                       # IPC: Instructions Per Cycle
system.switch_cpus.ipc_total                 2.291873                       # IPC: Total IPC of All Threads
system.switch_cpus.int_regfile_reads        286543663                       # number of integer regfile reads
system.switch_cpus.int_regfile_writes       151540046                       # number of integer regfile writes
system.switch_cpus.fp_regfile_reads          83818761                       # number of floating regfile reads
system.switch_cpus.fp_regfile_writes         74335468                       # number of floating regfile writes
system.switch_cpus.misc_regfile_reads         2533218                       # number of misc regfile reads
system.switch_cpus.misc_regfile_writes           2703                       # number of misc regfile writes
system.l2.tags.replacements                    141775                       # number of replacements
system.l2.tags.tagsinuse                  7959.351893                       # Cycle average of tags in use
system.l2.tags.total_refs                       57235                       # Total number of references to valid blocks.
system.l2.tags.sampled_refs                    149947                       # Sample count of references to valid blocks.
system.l2.tags.avg_refs                      0.381702                       # Average number of references to valid blocks.
system.l2.tags.warmup_cycle               48942132000                       # Cycle when the warmup percentage was hit.
system.l2.tags.occ_blocks::writebacks     5601.156725                       # Average occupied blocks per requestor
system.l2.tags.occ_blocks::switch_cpus.inst    24.026563                       # Average occupied blocks per requestor
system.l2.tags.occ_blocks::switch_cpus.data  2330.884986                       # Average occupied blocks per requestor
system.l2.tags.occ_blocks::cpu.inst          2.607313                       # Average occupied blocks per requestor
system.l2.tags.occ_blocks::cpu.data          0.676307                       # Average occupied blocks per requestor
system.l2.tags.occ_percent::writebacks       0.683735                       # Average percentage of cache occupancy
system.l2.tags.occ_percent::switch_cpus.inst     0.002933                       # Average percentage of cache occupancy
system.l2.tags.occ_percent::switch_cpus.data     0.284532                       # Average percentage of cache occupancy
system.l2.tags.occ_percent::cpu.inst         0.000318                       # Average percentage of cache occupancy
system.l2.tags.occ_percent::cpu.data         0.000083                       # Average percentage of cache occupancy
system.l2.tags.occ_percent::total            0.971601                       # Average percentage of cache occupancy
system.l2.ReadReq_hits::switch_cpus.inst           73                       # number of ReadReq hits
system.l2.ReadReq_hits::switch_cpus.data        35594                       # number of ReadReq hits
system.l2.ReadReq_hits::total                   35667                       # number of ReadReq hits
system.l2.Writeback_hits::writebacks            97547                       # number of Writeback hits
system.l2.Writeback_hits::total                 97547                       # number of Writeback hits
system.l2.ReadExReq_hits::switch_cpus.data        14495                       # number of ReadExReq hits
system.l2.ReadExReq_hits::total                 14495                       # number of ReadExReq hits
system.l2.demand_hits::switch_cpus.inst            73                       # number of demand (read+write) hits
system.l2.demand_hits::switch_cpus.data         50089                       # number of demand (read+write) hits
system.l2.demand_hits::total                    50162                       # number of demand (read+write) hits
system.l2.overall_hits::switch_cpus.inst           73                       # number of overall hits
system.l2.overall_hits::switch_cpus.data        50089                       # number of overall hits
system.l2.overall_hits::total                   50162                       # number of overall hits
system.l2.ReadReq_misses::switch_cpus.inst          974                       # number of ReadReq misses
system.l2.ReadReq_misses::switch_cpus.data        74392                       # number of ReadReq misses
system.l2.ReadReq_misses::total                 75366                       # number of ReadReq misses
system.l2.ReadExReq_misses::switch_cpus.data        74330                       # number of ReadExReq misses
system.l2.ReadExReq_misses::total               74330                       # number of ReadExReq misses
system.l2.demand_misses::switch_cpus.inst          974                       # number of demand (read+write) misses
system.l2.demand_misses::switch_cpus.data       148722                       # number of demand (read+write) misses
system.l2.demand_misses::total                 149696                       # number of demand (read+write) misses
system.l2.overall_misses::switch_cpus.inst          974                       # number of overall misses
system.l2.overall_misses::switch_cpus.data       148722                       # number of overall misses
system.l2.overall_misses::total                149696                       # number of overall misses
system.l2.ReadReq_miss_latency::switch_cpus.inst     66338250                       # number of ReadReq miss cycles
system.l2.ReadReq_miss_latency::switch_cpus.data   4586363000                       # number of ReadReq miss cycles
system.l2.ReadReq_miss_latency::total      4652701250                       # number of ReadReq miss cycles
system.l2.ReadExReq_miss_latency::switch_cpus.data   4611493750                       # number of ReadExReq miss cycles
system.l2.ReadExReq_miss_latency::total    4611493750                       # number of ReadExReq miss cycles
system.l2.demand_miss_latency::switch_cpus.inst     66338250                       # number of demand (read+write) miss cycles
system.l2.demand_miss_latency::switch_cpus.data   9197856750                       # number of demand (read+write) miss cycles
system.l2.demand_miss_latency::total       9264195000                       # number of demand (read+write) miss cycles
system.l2.overall_miss_latency::switch_cpus.inst     66338250                       # number of overall miss cycles
system.l2.overall_miss_latency::switch_cpus.data   9197856750                       # number of overall miss cycles
system.l2.overall_miss_latency::total      9264195000                       # number of overall miss cycles
system.l2.ReadReq_accesses::switch_cpus.inst         1047                       # number of ReadReq accesses(hits+misses)
system.l2.ReadReq_accesses::switch_cpus.data       109986                       # number of ReadReq accesses(hits+misses)
system.l2.ReadReq_accesses::total              111033                       # number of ReadReq accesses(hits+misses)
system.l2.Writeback_accesses::writebacks        97547                       # number of Writeback accesses(hits+misses)
system.l2.Writeback_accesses::total             97547                       # number of Writeback accesses(hits+misses)
system.l2.ReadExReq_accesses::switch_cpus.data        88825                       # number of ReadExReq accesses(hits+misses)
system.l2.ReadExReq_accesses::total             88825                       # number of ReadExReq accesses(hits+misses)
system.l2.demand_accesses::switch_cpus.inst         1047                       # number of demand (read+write) accesses
system.l2.demand_accesses::switch_cpus.data       198811                       # number of demand (read+write) accesses
system.l2.demand_accesses::total               199858                       # number of demand (read+write) accesses
[...]
system.cpu.icache.overall_mshr_hits::total          414                       # number of overall MSHR hits
system.cpu.icache.ReadReq_mshr_misses::switch_cpus.inst         1047                       # number of ReadReq MSHR misses
system.cpu.icache.ReadReq_mshr_misses::total         1047                       # number of ReadReq MSHR misses
system.cpu.icache.demand_mshr_misses::switch_cpus.inst         1047                       # number of demand (read+write) MSHR misses
system.cpu.icache.demand_mshr_misses::total         1047                       # number of demand (read+write) MSHR misses
system.cpu.icache.overall_mshr_misses::switch_cpus.inst         1047                       # number of overall MSHR misses
system.cpu.icache.overall_mshr_misses::total         1047                       # number of overall MSHR misses
system.cpu.icache.ReadReq_mshr_miss_latency::switch_cpus.inst     68123750                       # number of ReadReq MSHR miss cycles
system.cpu.icache.ReadReq_mshr_miss_latency::total     68123750                       # number of ReadReq MSHR miss cycles
system.cpu.icache.demand_mshr_miss_latency::switch_cpus.inst     68123750                       # number of demand (read+write) MSHR miss cycles
system.cpu.icache.demand_mshr_miss_latency::total     68123750                       # number of demand (read+write) MSHR miss cycles
system.cpu.icache.overall_mshr_miss_latency::switch_cpus.inst     68123750                       # number of overall MSHR miss cycles
system.cpu.icache.overall_mshr_miss_latency::total     68123750                       # number of overall MSHR miss cycles
system.cpu.icache.ReadReq_mshr_miss_rate::switch_cpus.inst     0.000045                       # mshr miss rate for ReadReq accesses
system.cpu.icache.ReadReq_mshr_miss_rate::total     0.000045                       # mshr miss rate for ReadReq accesses
system.cpu.icache.demand_mshr_miss_rate::switch_cpus.inst     0.000045                       # mshr miss rate for demand accesses
system.cpu.icache.demand_mshr_miss_rate::total     0.000045                       # mshr miss rate for demand accesses
system.cpu.icache.overall_mshr_miss_rate::switch_cpus.inst     0.000045                       # mshr miss rate for overall accesses
system.cpu.icache.overall_mshr_miss_rate::total     0.000045                       # mshr miss rate for overall accesses
system.cpu.icache.ReadReq_avg_mshr_miss_latency::switch_cpus.inst 65065.663801                       # average ReadReq mshr miss latency
system.cpu.icache.ReadReq_avg_mshr_miss_latency::total 65065.663801                       # average ReadReq mshr miss latency
system.cpu.icache.demand_avg_mshr_miss_latency::switch_cpus.inst 65065.663801                       # average overall mshr miss latency
system.cpu.icache.demand_avg_mshr_miss_latency::total 65065.663801                       # average overall mshr miss latency
system.cpu.icache.overall_avg_mshr_miss_latency::switch_cpus.inst 65065.663801                       # average overall mshr miss latency
system.cpu.icache.overall_avg_mshr_miss_latency::total 65065.663801                       # average overall mshr miss latency
system.cpu.icache.no_allocate_misses                0                       # Number of misses that were no-allocate
system.cpu.dcache.tags.replacements            198429                       # number of replacements
system.cpu.dcache.tags.tagsinuse           459.541853                       # Cycle average of tags in use
system.cpu.dcache.tags.total_refs            86998814                       # Total number of references to valid blocks.
system.cpu.dcache.tags.sampled_refs            198889                       # Sample count of references to valid blocks.
system.cpu.dcache.tags.avg_refs            437.423960                       # Average number of references to valid blocks.
system.cpu.dcache.tags.warmup_cycle                 0                       # Cycle when the warmup percentage was hit.
system.cpu.dcache.tags.occ_blocks::switch_cpus.data   459.487072                       # Average occupied blocks per requestor
system.cpu.dcache.tags.occ_blocks::cpu.data     0.054781                       # Average occupied blocks per requestor
system.cpu.dcache.tags.occ_percent::switch_cpus.data     0.897436                       # Average percentage of cache occupancy
system.cpu.dcache.tags.occ_percent::cpu.data     0.000107                       # Average percentage of cache occupancy
system.cpu.dcache.tags.occ_percent::total     0.897543                       # Average percentage of cache occupancy
system.cpu.dcache.ReadReq_hits::switch_cpus.data     62855719                       # number of ReadReq hits
system.cpu.dcache.ReadReq_hits::total        62855719                       # number of ReadReq hits
system.cpu.dcache.WriteReq_hits::switch_cpus.data     24140328                       # number of WriteReq hits
system.cpu.dcache.WriteReq_hits::total       24140328                       # number of WriteReq hits
system.cpu.dcache.LoadLockedReq_hits::switch_cpus.data          915                       # number of LoadLockedReq hits
system.cpu.dcache.LoadLockedReq_hits::total          915                       # number of LoadLockedReq hits
system.cpu.dcache.StoreCondReq_hits::switch_cpus.data         1351                       # number of StoreCondReq hits
system.cpu.dcache.StoreCondReq_hits::total         1351                       # number of StoreCondReq hits
system.cpu.dcache.demand_hits::switch_cpus.data     86996047                       # number of demand (read+write) hits
system.cpu.dcache.demand_hits::total         86996047                       # number of demand (read+write) hits
system.cpu.dcache.overall_hits::switch_cpus.data     86996047                       # number of overall hits
system.cpu.dcache.overall_hits::total        86996047                       # number of overall hits
system.cpu.dcache.ReadReq_misses::switch_cpus.data       379848                       # number of ReadReq misses
system.cpu.dcache.ReadReq_misses::total        379848                       # number of ReadReq misses
system.cpu.dcache.WriteReq_misses::switch_cpus.data       309739                       # number of WriteReq misses
system.cpu.dcache.WriteReq_misses::total       309739                       # number of WriteReq misses
system.cpu.dcache.LoadLockedReq_misses::switch_cpus.data          439                       # number of LoadLockedReq misses
system.cpu.dcache.LoadLockedReq_misses::total          439                       # number of LoadLockedReq misses
system.cpu.dcache.demand_misses::switch_cpus.data       689587                       # number of demand (read+write) misses
system.cpu.dcache.demand_misses::total         689587                       # number of demand (read+write) misses
system.cpu.dcache.overall_misses::switch_cpus.data       689587                       # number of overall misses
system.cpu.dcache.overall_misses::total        689587                       # number of overall misses
system.cpu.dcache.ReadReq_miss_latency::switch_cpus.data  17265899500                       # number of ReadReq miss cycles
system.cpu.dcache.ReadReq_miss_latency::total  17265899500                       # number of ReadReq miss cycles
system.cpu.dcache.WriteReq_miss_latency::switch_cpus.data  13943798452                       # number of WriteReq miss cycles
system.cpu.dcache.WriteReq_miss_latency::total  13943798452                       # number of WriteReq miss cycles
system.cpu.dcache.LoadLockedReq_miss_latency::switch_cpus.data      6227500                       # number of LoadLockedReq miss cycles
system.cpu.dcache.LoadLockedReq_miss_latency::total      6227500                       # number of LoadLockedReq miss cycles
system.cpu.dcache.demand_miss_latency::switch_cpus.data  31209697952                       # number of demand (read+write) miss cycles
system.cpu.dcache.demand_miss_latency::total  31209697952                       # number of demand (read+write) miss cycles
system.cpu.dcache.overall_miss_latency::switch_cpus.data  31209697952                       # number of overall miss cycles
system.cpu.dcache.overall_miss_latency::total  31209697952                       # number of overall miss cycles
system.cpu.dcache.ReadReq_accesses::switch_cpus.data     63235567                       # number of ReadReq accesses(hits+misses)
system.cpu.dcache.ReadReq_accesses::total     63235567                       # number of ReadReq accesses(hits+misses)
system.cpu.dcache.WriteReq_accesses::switch_cpus.data     24450067                       # number of WriteReq accesses(hits+misses)
system.cpu.dcache.WriteReq_accesses::total     24450067                       # number of WriteReq accesses(hits+misses)
system.cpu.dcache.LoadLockedReq_accesses::switch_cpus.data         1354                       # number of LoadLockedReq accesses(hits+misses)
system.cpu.dcache.LoadLockedReq_accesses::total         1354                       # number of LoadLockedReq accesses(hits+misses)
system.cpu.dcache.StoreCondReq_accesses::switch_cpus.data         1351                       # number of StoreCondReq accesses(hits+misses)
system.cpu.dcache.StoreCondReq_accesses::total         1351                       # number of StoreCondReq accesses(hits+misses)
system.cpu.dcache.demand_accesses::switch_cpus.data     87685634                       # number of demand (read+write) accesses
system.cpu.dcache.demand_accesses::total     87685634                       # number of demand (read+write) accesses
system.cpu.dcache.overall_accesses::switch_cpus.data     87685634                       # number of overall (read+write) accesses
system.cpu.dcache.overall_accesses::total     87685634                       # number of overall (read+write) accesses
system.cpu.dcache.ReadReq_miss_rate::switch_cpus.data     0.006007                       # miss rate for ReadReq accesses
system.cpu.dcache.ReadReq_miss_rate::total     0.006007                       # miss rate for ReadReq accesses
system.cpu.dcache.WriteReq_miss_rate::switch_cpus.data     0.012668                       # miss rate for WriteReq accesses
system.cpu.dcache.WriteReq_miss_rate::total     0.012668                       # miss rate for WriteReq accesses
system.cpu.dcache.LoadLockedReq_miss_rate::switch_cpus.data     0.324225                       # miss rate for LoadLockedReq accesses
system.cpu.dcache.LoadLockedReq_miss_rate::total     0.324225                       # miss rate for LoadLockedReq accesses
system.cpu.dcache.demand_miss_rate::switch_cpus.data     0.007864                       # miss rate for demand accesses
system.cpu.dcache.demand_miss_rate::total     0.007864                       # miss rate for demand accesses
system.cpu.dcache.overall_miss_rate::switch_cpus.data     0.007864                       # miss rate for overall accesses
system.cpu.dcache.overall_miss_rate::total     0.007864                       # miss rate for overall accesses
system.cpu.dcache.ReadReq_avg_miss_latency::switch_cpus.data 45454.759535                       # average ReadReq miss latency
system.cpu.dcache.ReadReq_avg_miss_latency::total 45454.759535                       # average ReadReq miss latency
system.cpu.dcache.WriteReq_avg_miss_latency::switch_cpus.data 45017.897171                       # average WriteReq miss latency
system.cpu.dcache.WriteReq_avg_miss_latency::total 45017.897171                       # average WriteReq miss latency
system.cpu.dcache.LoadLockedReq_avg_miss_latency::switch_cpus.data 14185.649203                       # average LoadLockedReq miss latency
system.cpu.dcache.LoadLockedReq_avg_miss_latency::total 14185.649203                       # average LoadLockedReq miss latency
system.cpu.dcache.demand_avg_miss_latency::switch_cpus.data 45258.535837                       # average overall miss latency
system.cpu.dcache.demand_avg_miss_latency::total 45258.535837                       # average overall miss latency
system.cpu.dcache.overall_avg_miss_latency::switch_cpus.data 45258.535837                       # average overall miss latency
system.cpu.dcache.overall_avg_miss_latency::total 45258.535837                       # average overall miss latency
system.cpu.dcache.blocked_cycles::no_mshrs         5538                       # number of cycles access was blocked
system.cpu.dcache.blocked_cycles::no_targets            0                       # number of cycles access was blocked
system.cpu.dcache.blocked::no_mshrs                95                       # number of cycles access was blocked
system.cpu.dcache.blocked::no_targets               0                       # number of cycles access was blocked
system.cpu.dcache.avg_blocked_cycles::no_mshrs    58.294737                       # average number of cycles each access was blocked
system.cpu.dcache.avg_blocked_cycles::no_targets          nan                       # average number of cycles each access was blocked
system.cpu.dcache.fast_writes                       0                       # number of fast writes performed
system.cpu.dcache.cache_copies                      0                       # number of cache copies performed
system.cpu.dcache.writebacks::writebacks        97547                       # number of writebacks
system.cpu.dcache.writebacks::total             97547                       # number of writebacks
system.cpu.dcache.ReadReq_mshr_hits::switch_cpus.data       269860                       # number of ReadReq MSHR hits
system.cpu.dcache.ReadReq_mshr_hits::total       269860                       # number of ReadReq MSHR hits
system.cpu.dcache.WriteReq_mshr_hits::switch_cpus.data       220918                       # number of WriteReq MSHR hits
system.cpu.dcache.WriteReq_mshr_hits::total       220918                       # number of WriteReq MSHR hits
system.cpu.dcache.LoadLockedReq_mshr_hits::switch_cpus.data          437                       # number of LoadLockedReq MSHR hits
system.cpu.dcache.LoadLockedReq_mshr_hits::total          437                       # number of LoadLockedReq MSHR hits
system.cpu.dcache.demand_mshr_hits::switch_cpus.data       490778                       # number of demand (read+write) MSHR hits
system.cpu.dcache.demand_mshr_hits::total       490778                       # number of demand (read+write) MSHR hits
system.cpu.dcache.overall_mshr_hits::switch_cpus.data       490778                       # number of overall MSHR hits
system.cpu.dcache.overall_mshr_hits::total       490778                       # number of overall MSHR hits
system.cpu.dcache.ReadReq_mshr_misses::switch_cpus.data       109988                       # number of ReadReq MSHR misses
system.cpu.dcache.ReadReq_mshr_misses::total       109988                       # number of ReadReq MSHR misses
system.cpu.dcache.WriteReq_mshr_misses::switch_cpus.data        88821                       # number of WriteReq MSHR misses
system.cpu.dcache.WriteReq_mshr_misses::total        88821                       # number of WriteReq MSHR misses
system.cpu.dcache.LoadLockedReq_mshr_misses::switch_cpus.data            2                       # number of LoadLockedReq MSHR misses
system.cpu.dcache.LoadLockedReq_mshr_misses::total            2                       # number of LoadLockedReq MSHR misses
system.cpu.dcache.demand_mshr_misses::switch_cpus.data       198809                       # number of demand (read+write) MSHR misses
system.cpu.dcache.demand_mshr_misses::total       198809                       # number of demand (read+write) MSHR misses
system.cpu.dcache.overall_mshr_misses::switch_cpus.data       198809                       # number of overall MSHR misses
system.cpu.dcache.overall_mshr_misses::total       198809                       # number of overall MSHR misses
system.cpu.dcache.ReadReq_mshr_miss_latency::switch_cpus.data   5053756750                       # number of ReadReq MSHR miss cycles
system.cpu.dcache.ReadReq_mshr_miss_latency::total   5053756750                       # number of ReadReq MSHR miss cycles
system.cpu.dcache.WriteReq_mshr_miss_latency::switch_cpus.data   4846100749                       # number of WriteReq MSHR miss cycles
system.cpu.dcache.WriteReq_mshr_miss_latency::total   4846100749                       # number of WriteReq MSHR miss cycles
system.cpu.dcache.LoadLockedReq_mshr_miss_latency::switch_cpus.data       108250                       # number of LoadLockedReq MSHR miss cycles
system.cpu.dcache.LoadLockedReq_mshr_miss_latency::total       108250                       # number of LoadLockedReq MSHR miss cycles
system.cpu.dcache.demand_mshr_miss_latency::switch_cpus.data   9899857499                       # number of demand (read+write) MSHR miss cycles
system.cpu.dcache.demand_mshr_miss_latency::total   9899857499                       # number of demand (read+write) MSHR miss cycles
system.cpu.dcache.overall_mshr_miss_latency::switch_cpus.data   9899857499                       # number of overall MSHR miss cycles
system.cpu.dcache.overall_mshr_miss_latency::total   9899857499                       # number of overall MSHR miss cycles
system.cpu.dcache.ReadReq_mshr_miss_rate::switch_cpus.data     0.001739                       # mshr miss rate for ReadReq accesses
system.cpu.dcache.ReadReq_mshr_miss_rate::total     0.001739                       # mshr miss rate for ReadReq accesses
system.cpu.dcache.WriteReq_mshr_miss_rate::switch_cpus.data     0.003633                       # mshr miss rate for WriteReq accesses
system.cpu.dcache.WriteReq_mshr_miss_rate::total     0.003633                       # mshr miss rate for WriteReq accesses
system.cpu.dcache.LoadLockedReq_mshr_miss_rate::switch_cpus.data     0.001477                       # mshr miss rate for LoadLockedReq accesses
system.cpu.dcache.LoadLockedReq_mshr_miss_rate::total     0.001477                       # mshr miss rate for LoadLockedReq accesses
system.cpu.dcache.demand_mshr_miss_rate::switch_cpus.data     0.002267                       # mshr miss rate for demand accesses
system.cpu.dcache.demand_mshr_miss_rate::total     0.002267                       # mshr miss rate for demand accesses
system.cpu.dcache.overall_mshr_miss_rate::switch_cpus.data     0.002267                       # mshr miss rate for overall accesses
system.cpu.dcache.overall_mshr_miss_rate::total     0.002267                       # mshr miss rate for overall accesses
system.cpu.dcache.ReadReq_avg_mshr_miss_latency::switch_cpus.data 45948.255719                       # average ReadReq mshr miss latency
system.cpu.dcache.ReadReq_avg_mshr_miss_latency::total 45948.255719                       # average ReadReq mshr miss latency
system.cpu.dcache.WriteReq_avg_mshr_miss_latency::switch_cpus.data 54560.303858                       # average WriteReq mshr miss latency
system.cpu.dcache.WriteReq_avg_mshr_miss_latency::total 54560.303858                       # average WriteReq mshr miss latency
system.cpu.dcache.LoadLockedReq_avg_mshr_miss_latency::switch_cpus.data        54125                       # average LoadLockedReq mshr miss latency
system.cpu.dcache.LoadLockedReq_avg_mshr_miss_latency::total        54125                       # average LoadLockedReq mshr miss latency
system.cpu.dcache.demand_avg_mshr_miss_latency::switch_cpus.data 49795.821613                       # average overall mshr miss latency
system.cpu.dcache.demand_avg_mshr_miss_latency::total 49795.821613                       # average overall mshr miss latency
system.cpu.dcache.overall_avg_mshr_miss_latency::switch_cpus.data 49795.821613                       # average overall mshr miss latency
system.cpu.dcache.overall_avg_mshr_miss_latency::total 49795.821613                       # average overall mshr miss latency
system.cpu.dcache.no_allocate_misses                0                       # Number of misses that were no-allocate

---------- End Simulation Statistics   ----------
