Redirecting stdout to /home/majid/gem5/gem5-relax/tests/test-progs/susan/runs/west-edges-440-0-relaxed-1/west-edges-440-0-relaxed-1.out
Redirecting stderr to /home/majid/gem5/gem5-relax/tests/test-progs/susan/runs/west-edges-440-0-relaxed-1/west-edges-440-0-relaxed-1.err
gem5 Simulator System.  http://gem5.org
gem5 is copyrighted software; use the --copyright option for details.

gem5 compiled Apr 21 2014 11:01:47
gem5 started Apr 24 2014 12:20:22
gem5 executing on drg.ics.uci.edu
command line: /home/majid/gem5/gem5-relax/build/ALPHA/gem5.opt --redirect-stdout --redirect-stderr --stdout-file=/home/majid/gem5/gem5-relax/tests/test-progs/susan/runs/west-edges-440-0-relaxed-1/west-edges-440-0-relaxed-1.out --stderr-file=/home/majid/gem5/gem5-relax/tests/test-progs/susan/runs/west-edges-440-0-relaxed-1/west-edges-440-0-relaxed-1.err --outdir=/home/majid/gem5/gem5-relax/tests/test-progs/susan/runs/west-edges-440-0-relaxed-1 --debug-flags=PseudoInst /home/majid/gem5/gem5-relax/configs/example/se_relax_cache.py --cpu-type=detailed --num-cpus=1 --sys-clock=2GHz --cpu-clock=2GHz --mem-type=ddr3_1600_x64 --mem-size=512MB --caches --l2cache --num-l2caches=1 --num-l3caches=0 --l1d_size=32kB --l1i_size=32kB --l2_size=512kB --l1d_assoc=4 --l1i_assoc=4 --l2_assoc=8 --cacheline_size=64 --fast-forward=3390 --maxinsts=100000000000000 --at-instruction --replacement_policy=random --l1_voltage_parameter_file=/home/majid/gem5/gem5-relax/ber_info/gem5params-L1-A.csv --l2_voltage_parameter_file=/home/majid/gem5/gem5-relax/ber_info/gem5params-L2-A.csv --vdd3_l1=440 --vdd2_l1=1000 --vdd1_l1=1000 --vdd3_l2=1000 --vdd2_l2=1000 --vdd1_l2=1000 --init_afb_l1=0 --init_afb_l2=0 --clean_ways_l1=1 --clean_ways_l2=8 -c /home/majid/gem5/gem5-relax/tests/test-progs/susan/bin/alpha/susan -o /home/majid/gem5/gem5-relax/tests/test-progs/susan/inputs/west.pgm /home/majid/gem5/gem5-relax/tests/test-progs/susan/outputs/west-edges-440-0-relaxed-1.pgm -e
Global frequency set at 1000000000000 ticks per second
info: Reading this cache's voltage parameter file...
info: Reading this cache's voltage parameter file...
info: Reading this cache's voltage parameter file...
info: Generating fault maps for this cache
info: Fault map generated
info: Dumping cache fault map for VDDs [440 mV, 1000 mV, 1000 mV]...
info: Block# = 0 ==>  0, 0, 0
info: Block# = 1 ==>  6, 0, 0
info: Block# = 2 ==>  2, 0, 0
info: Block# = 3 ==>  5, 0, 0
info: Block# = 4 ==>  0, 0, 0
info: Block# = 5 ==>  4, 0, 0
info: Block# = 6 ==>  3, 0, 0
info: Block# = 7 ==>  6, 0, 0
info: Block# = 8 ==>  0, 0, 0
info: Block# = 9 ==>  4, 0, 0
info: Block# = 10 ==>  5, 0, 0
info: Block# = 11 ==>  1, 0, 0
info: Block# = 12 ==>  0, 0, 0
info: Block# = 13 ==>  2, 0, 0
info: Block# = 14 ==>  6, 0, 0
info: Block# = 15 ==>  1, 0, 0
info: Block# = 16 ==>  0, 0, 0
info: Block# = 17 ==>  5, 0, 0
info: Block# = 18 ==>  8, 0, 0
info: Block# = 19 ==>  7, 0, 0
info: Block# = 20 ==>  0, 0, 0
info: Block# = 21 ==>  6, 0, 0
info: Block# = 22 ==>  8, 0, 0
info: Block# = 23 ==>  2, 0, 0
info: Block# = 24 ==>  0, 0, 0
info: Block# = 25 ==>  4, 0, 0
info: Block# = 26 ==>  7, 0, 0
info: Block# = 27 ==>  4, 0, 0
info: Block# = 28 ==>  0, 0, 0
info: Block# = 29 ==>  3, 0, 0
info: Block# = 30 ==>  1, 0, 0
info: Block# = 31 ==>  5, 0, 0
info: Block# = 32 ==>  0, 0, 0
info: Block# = 33 ==>  6, 0, 0
info: Block# = 34 ==>  3, 0, 0
info: Block# = 35 ==>  3, 0, 0
info: Block# = 36 ==>  0, 0, 0
info: Block# = 37 ==>  6, 0, 0
info: Block# = 38 ==>  5, 0, 0
info: Block# = 39 ==>  5, 0, 0
info: Block# = 40 ==>  0, 0, 0
info: Block# = 41 ==>  4, 0, 0
info: Block# = 42 ==>  11, 0, 0
info: Block# = 43 ==>  3, 0, 0
info: Block# = 44 ==>  0, 0, 0
info: Block# = 45 ==>  6, 0, 0
info: Block# = 46 ==>  5, 0, 0
info: Block# = 47 ==>  3, 0, 0
info: Block# = 48 ==>  0, 0, 0
info: Block# = 49 ==>  4, 0, 0
info: Block# = 50 ==>  1, 0, 0
info: Block# = 51 ==>  5, 0, 0
info: Block# = 52 ==>  0, 0, 0
info: Block# = 53 ==>  5, 0, 0
info: Block# = 54 ==>  7, 0, 0
info: Block# = 55 ==>  5, 0, 0
info: Block# = 56 ==>  0, 0, 0
info: Block# = 57 ==>  3, 0, 0
info: Block# = 58 ==>  4, 0, 0
info: Block# = 59 ==>  7, 0, 0
info: Block# = 60 ==>  0, 0, 0
info: Block# = 61 ==>  1, 0, 0
info: Block# = 62 ==>  5, 0, 0
info: Block# = 63 ==>  11, 0, 0
info: Block# = 64 ==>  0, 0, 0
info: Block# = 65 ==>  3, 0, 0
info: Block# = 66 ==>  4, 0, 0
info: Block# = 67 ==>  9, 0, 0
info: Block# = 68 ==>  0, 0, 0
info: Block# = 69 ==>  2, 0, 0
info: Block# = 70 ==>  2, 0, 0
info: Block# = 71 ==>  3, 0, 0
info: Block# = 72 ==>  0, 0, 0
info: Block# = 73 ==>  3, 0, 0
info: Block# = 74 ==>  4, 0, 0
info: Block# = 75 ==>  4, 0, 0
info: Block# = 76 ==>  0, 0, 0
info: Block# = 77 ==>  5, 0, 0
info: Block# = 78 ==>  1, 0, 0
info: Block# = 79 ==>  3, 0, 0
info: Block# = 80 ==>  0, 0, 0
info: Block# = 81 ==>  6, 0, 0
info: Block# = 82 ==>  3, 0, 0
info: Block# = 83 ==>  7, 0, 0
info: Block# = 84 ==>  0, 0, 0
info: Block# = 85 ==>  2, 0, 0
info: Block# = 86 ==>  2, 0, 0
info: Block# = 87 ==>  3, 0, 0
info: Block# = 88 ==>  0, 0, 0
info: Block# = 89 ==>  5, 0, 0
info: Block# = 90 ==>  6, 0, 0
info: Block# = 91 ==>  2, 0, 0
info: Block# = 92 ==>  0, 0, 0
info: Block# = 93 ==>  4, 0, 0
info: Block# = 94 ==>  5, 0, 0
info: Block# = 95 ==>  2, 0, 0
info: Block# = 96 ==>  0, 0, 0
info: Block# = 97 ==>  1, 0, 0
info: Block# = 98 ==>  2, 0, 0
info: Block# = 99 ==>  2, 0, 0
info: Block# = 100 ==>  0, 0, 0
info: Block# = 101 ==>  5, 0, 0
info: Block# = 102 ==>  3, 0, 0
info: Block# = 103 ==>  4, 0, 0
info: Block# = 104 ==>  0, 0, 0
info: Block# = 105 ==>  7, 0, 0
info: Block# = 106 ==>  3, 0, 0
info: Block# = 107 ==>  3, 0, 0
info: Block# = 108 ==>  0, 0, 0
info: Block# = 109 ==>  4, 0, 0
info: Block# = 110 ==>  5, 0, 0
info: Block# = 111 ==>  1, 0, 0
info: Block# = 112 ==>  0, 0, 0
info: Block# = 113 ==>  3, 0, 0
info: Block# = 114 ==>  6, 0, 0
info: Block# = 115 ==>  2, 0, 0
info: Block# = 116 ==>  0, 0, 0
info: Block# = 117 ==>  5, 0, 0
info: Block# = 118 ==>  4, 0, 0
info: Block# = 119 ==>  4, 0, 0
info: Block# = 120 ==>  0, 0, 0
info: Block# = 121 ==>  5, 0, 0
info: Block# = 122 ==>  11, 0, 0
info: Block# = 123 ==>  5, 0, 0
info: Block# = 124 ==>  0, 0, 0
info: Block# = 125 ==>  7, 0, 0
info: Block# = 126 ==>  3, 0, 0
info: Block# = 127 ==>  0, 0, 0
info: Block# = 128 ==>  0, 0, 0
info: Block# = 129 ==>  3, 0, 0
info: Block# = 130 ==>  8, 0, 0
info: Block# = 131 ==>  7, 0, 0
info: Block# = 132 ==>  0, 0, 0
info: Block# = 133 ==>  4, 0, 0
info: Block# = 134 ==>  1, 0, 0
info: Block# = 135 ==>  9, 0, 0
info: Block# = 136 ==>  0, 0, 0
info: Block# = 137 ==>  2, 0, 0
info: Block# = 138 ==>  5, 0, 0
info: Block# = 139 ==>  1, 0, 0
info: Block# = 140 ==>  0, 0, 0
info: Block# = 141 ==>  2, 0, 0
info: Block# = 142 ==>  6, 0, 0
info: Block# = 143 ==>  4, 0, 0
info: Block# = 144 ==>  0, 0, 0
info: Block# = 145 ==>  2, 0, 0
info: Block# = 146 ==>  6, 0, 0
info: Block# = 147 ==>  4, 0, 0
info: Block# = 148 ==>  0, 0, 0
info: Block# = 149 ==>  4, 0, 0
info: Block# = 150 ==>  3, 0, 0
info: Block# = 151 ==>  5, 0, 0
info: Block# = 152 ==>  0, 0, 0
info: Block# = 153 ==>  3, 0, 0
info: Block# = 154 ==>  1, 0, 0
info: Block# = 155 ==>  4, 0, 0
info: Block# = 156 ==>  0, 0, 0
info: Block# = 157 ==>  5, 0, 0
info: Block# = 158 ==>  4, 0, 0
info: Block# = 159 ==>  3, 0, 0
info: Block# = 160 ==>  0, 0, 0
info: Block# = 161 ==>  4, 0, 0
info: Block# = 162 ==>  4, 0, 0
info: Block# = 163 ==>  5, 0, 0
info: Block# = 164 ==>  0, 0, 0
info: Block# = 165 ==>  3, 0, 0
info: Block# = 166 ==>  1, 0, 0
info: Block# = 167 ==>  2, 0, 0
info: Block# = 168 ==>  0, 0, 0
info: Block# = 169 ==>  7, 0, 0
info: Block# = 170 ==>  7, 0, 0
info: Block# = 171 ==>  5, 0, 0
info: Block# = 172 ==>  0, 0, 0
info: Block# = 173 ==>  4, 0, 0
info: Block# = 174 ==>  4, 0, 0
info: Block# = 175 ==>  3, 0, 0
info: Block# = 176 ==>  0, 0, 0
info: Block# = 177 ==>  3, 0, 0
info: Block# = 178 ==>  3, 0, 0
info: Block# = 179 ==>  3, 0, 0
info: Block# = 180 ==>  0, 0, 0
info: Block# = 181 ==>  2, 0, 0
info: Block# = 182 ==>  5, 0, 0
info: Block# = 183 ==>  4, 0, 0
info: Block# = 184 ==>  0, 0, 0
info: Block# = 185 ==>  3, 0, 0
info: Block# = 186 ==>  2, 0, 0
info: Block# = 187 ==>  2, 0, 0
info: Block# = 188 ==>  0, 0, 0
info: Block# = 189 ==>  6, 0, 0
info: Block# = 190 ==>  4, 0, 0
info: Block# = 191 ==>  4, 0, 0
info: Block# = 192 ==>  0, 0, 0
info: Block# = 193 ==>  4, 0, 0
info: Block# = 194 ==>  4, 0, 0
info: Block# = 195 ==>  4, 0, 0
info: Block# = 196 ==>  0, 0, 0
info: Block# = 197 ==>  3, 0, 0
info: Block# = 198 ==>  1, 0, 0
info: Block# = 199 ==>  6, 0, 0
info: Block# = 200 ==>  0, 0, 0
info: Block# = 201 ==>  6, 0, 0
info: Block# = 202 ==>  3, 0, 0
info: Block# = 203 ==>  5, 0, 0
info: Block# = 204 ==>  0, 0, 0
info: Block# = 205 ==>  1, 0, 0
info: Block# = 206 ==>  3, 0, 0
info: Block# = 207 ==>  2, 0, 0
info: Block# = 208 ==>  0, 0, 0
info: Block# = 209 ==>  6, 0, 0
info: Block# = 210 ==>  2, 0, 0
info: Block# = 211 ==>  4, 0, 0
info: Block# = 212 ==>  0, 0, 0
info: Block# = 213 ==>  6, 0, 0
info: Block# = 214 ==>  4, 0, 0
info: Block# = 215 ==>  5, 0, 0
info: Block# = 216 ==>  0, 0, 0
info: Block# = 217 ==>  6, 0, 0
info: Block# = 218 ==>  7, 0, 0
info: Block# = 219 ==>  3, 0, 0
info: Block# = 220 ==>  0, 0, 0
info: Block# = 221 ==>  3, 0, 0
info: Block# = 222 ==>  4, 0, 0
info: Block# = 223 ==>  3, 0, 0
info: Block# = 224 ==>  0, 0, 0
info: Block# = 225 ==>  5, 0, 0
info: Block# = 226 ==>  4, 0, 0
info: Block# = 227 ==>  9, 0, 0
info: Block# = 228 ==>  0, 0, 0
info: Block# = 229 ==>  3, 0, 0
info: Block# = 230 ==>  4, 0, 0
info: Block# = 231 ==>  5, 0, 0
info: Block# = 232 ==>  0, 0, 0
info: Block# = 233 ==>  3, 0, 0
info: Block# = 234 ==>  1, 0, 0
info: Block# = 235 ==>  2, 0, 0
info: Block# = 236 ==>  0, 0, 0
info: Block# = 237 ==>  7, 0, 0
info: Block# = 238 ==>  2, 0, 0
info: Block# = 239 ==>  5, 0, 0
info: Block# = 240 ==>  0, 0, 0
info: Block# = 241 ==>  6, 0, 0
info: Block# = 242 ==>  5, 0, 0
info: Block# = 243 ==>  4, 0, 0
info: Block# = 244 ==>  0, 0, 0
info: Block# = 245 ==>  3, 0, 0
info: Block# = 246 ==>  6, 0, 0
info: Block# = 247 ==>  3, 0, 0
info: Block# = 248 ==>  0, 0, 0
info: Block# = 249 ==>  5, 0, 0
info: Block# = 250 ==>  2, 0, 0
info: Block# = 251 ==>  3, 0, 0
info: Block# = 252 ==>  0, 0, 0
info: Block# = 253 ==>  3, 0, 0
info: Block# = 254 ==>  3, 0, 0
info: Block# = 255 ==>  4, 0, 0
info: Block# = 256 ==>  0, 0, 0
info: Block# = 257 ==>  5, 0, 0
info: Block# = 258 ==>  2, 0, 0
info: Block# = 259 ==>  4, 0, 0
info: Block# = 260 ==>  0, 0, 0
info: Block# = 261 ==>  3, 0, 0
info: Block# = 262 ==>  1, 0, 0
info: Block# = 263 ==>  2, 0, 0
info: Block# = 264 ==>  0, 0, 0
info: Block# = 265 ==>  0, 0, 0
info: Block# = 266 ==>  7, 0, 0
info: Block# = 267 ==>  6, 0, 0
info: Block# = 268 ==>  0, 0, 0
info: Block# = 269 ==>  4, 0, 0
info: Block# = 270 ==>  2, 0, 0
info: Block# = 271 ==>  4, 0, 0
info: Block# = 272 ==>  0, 0, 0
info: Block# = 273 ==>  6, 0, 0
info: Block# = 274 ==>  1, 0, 0
info: Block# = 275 ==>  3, 0, 0
info: Block# = 276 ==>  0, 0, 0
info: Block# = 277 ==>  4, 0, 0
info: Block# = 278 ==>  3, 0, 0
info: Block# = 279 ==>  4, 0, 0
info: Block# = 280 ==>  0, 0, 0
info: Block# = 281 ==>  2, 0, 0
info: Block# = 282 ==>  5, 0, 0
info: Block# = 283 ==>  3, 0, 0
info: Block# = 284 ==>  0, 0, 0
info: Block# = 285 ==>  6, 0, 0
info: Block# = 286 ==>  3, 0, 0
info: Block# = 287 ==>  3, 0, 0
info: Block# = 288 ==>  0, 0, 0
info: Block# = 289 ==>  1, 0, 0
info: Block# = 290 ==>  2, 0, 0
info: Block# = 291 ==>  1, 0, 0
info: Block# = 292 ==>  0, 0, 0
info: Block# = 293 ==>  4, 0, 0
info: Block# = 294 ==>  4, 0, 0
info: Block# = 295 ==>  5, 0, 0
info: Block# = 296 ==>  0, 0, 0
info: Block# = 297 ==>  3, 0, 0
info: Block# = 298 ==>  2, 0, 0
info: Block# = 299 ==>  3, 0, 0
info: Block# = 300 ==>  0, 0, 0
info: Block# = 301 ==>  3, 0, 0
info: Block# = 302 ==>  10, 0, 0
info: Block# = 303 ==>  5, 0, 0
info: Block# = 304 ==>  0, 0, 0
info: Block# = 305 ==>  7, 0, 0
info: Block# = 306 ==>  3, 0, 0
info: Block# = 307 ==>  1, 0, 0
info: Block# = 308 ==>  0, 0, 0
info: Block# = 309 ==>  2, 0, 0
info: Block# = 310 ==>  6, 0, 0
info: Block# = 311 ==>  3, 0, 0
info: Block# = 312 ==>  0, 0, 0
info: Block# = 313 ==>  5, 0, 0
info: Block# = 314 ==>  0, 0, 0
info: Block# = 315 ==>  5, 0, 0
info: Block# = 316 ==>  0, 0, 0
info: Block# = 317 ==>  8, 0, 0
info: Block# = 318 ==>  3, 0, 0
info: Block# = 319 ==>  2, 0, 0
info: Block# = 320 ==>  0, 0, 0
info: Block# = 321 ==>  5, 0, 0
info: Block# = 322 ==>  6, 0, 0
info: Block# = 323 ==>  2, 0, 0
info: Block# = 324 ==>  0, 0, 0
info: Block# = 325 ==>  5, 0, 0
info: Block# = 326 ==>  7, 0, 0
info: Block# = 327 ==>  4, 0, 0
info: Block# = 328 ==>  0, 0, 0
info: Block# = 329 ==>  3, 0, 0
info: Block# = 330 ==>  7, 0, 0
info: Block# = 331 ==>  4, 0, 0
info: Block# = 332 ==>  0, 0, 0
info: Block# = 333 ==>  5, 0, 0
info: Block# = 334 ==>  4, 0, 0
info: Block# = 335 ==>  3, 0, 0
info: Block# = 336 ==>  0, 0, 0
info: Block# = 337 ==>  5, 0, 0
info: Block# = 338 ==>  5, 0, 0
info: Block# = 339 ==>  7, 0, 0
info: Block# = 340 ==>  0, 0, 0
info: Block# = 341 ==>  4, 0, 0
info: Block# = 342 ==>  5, 0, 0
info: Block# = 343 ==>  2, 0, 0
info: Block# = 344 ==>  0, 0, 0
info: Block# = 345 ==>  2, 0, 0
info: Block# = 346 ==>  3, 0, 0
info: Block# = 347 ==>  9, 0, 0
info: Block# = 348 ==>  0, 0, 0
info: Block# = 349 ==>  3, 0, 0
info: Block# = 350 ==>  5, 0, 0
info: Block# = 351 ==>  3, 0, 0
info: Block# = 352 ==>  0, 0, 0
info: Block# = 353 ==>  4, 0, 0
info: Block# = 354 ==>  3, 0, 0
info: Block# = 355 ==>  5, 0, 0
info: Block# = 356 ==>  0, 0, 0
info: Block# = 357 ==>  2, 0, 0
info: Block# = 358 ==>  6, 0, 0
info: Block# = 359 ==>  7, 0, 0
info: Block# = 360 ==>  0, 0, 0
info: Block# = 361 ==>  6, 0, 0
info: Block# = 362 ==>  3, 0, 0
info: Block# = 363 ==>  3, 0, 0
info: Block# = 364 ==>  0, 0, 0
info: Block# = 365 ==>  6, 0, 0
info: Block# = 366 ==>  2, 0, 0
info: Block# = 367 ==>  5, 0, 0
info: Block# = 368 ==>  0, 0, 0
info: Block# = 369 ==>  5, 0, 0
info: Block# = 370 ==>  5, 0, 0
info: Block# = 371 ==>  2, 0, 0
info: Block# = 372 ==>  0, 0, 0
info: Block# = 373 ==>  4, 0, 0
info: Block# = 374 ==>  4, 0, 0
info: Block# = 375 ==>  1, 0, 0
info: Block# = 376 ==>  0, 0, 0
info: Block# = 377 ==>  3, 0, 0
info: Block# = 378 ==>  2, 0, 0
info: Block# = 379 ==>  5, 0, 0
info: Block# = 380 ==>  0, 0, 0
info: Block# = 381 ==>  4, 0, 0
info: Block# = 382 ==>  4, 0, 0
info: Block# = 383 ==>  2, 0, 0
info: Block# = 384 ==>  0, 0, 0
info: Block# = 385 ==>  5, 0, 0
info: Block# = 386 ==>  4, 0, 0
info: Block# = 387 ==>  3, 0, 0
info: Block# = 388 ==>  0, 0, 0
info: Block# = 389 ==>  5, 0, 0
info: Block# = 390 ==>  5, 0, 0
info: Block# = 391 ==>  5, 0, 0
info: Block# = 392 ==>  0, 0, 0
info: Block# = 393 ==>  6, 0, 0
info: Block# = 394 ==>  3, 0, 0
info: Block# = 395 ==>  3, 0, 0
info: Block# = 396 ==>  0, 0, 0
info: Block# = 397 ==>  3, 0, 0
info: Block# = 398 ==>  4, 0, 0
info: Block# = 399 ==>  4, 0, 0
info: Block# = 400 ==>  0, 0, 0
info: Block# = 401 ==>  5, 0, 0
info: Block# = 402 ==>  2, 0, 0
info: Block# = 403 ==>  4, 0, 0
info: Block# = 404 ==>  0, 0, 0
info: Block# = 405 ==>  2, 0, 0
info: Block# = 406 ==>  2, 0, 0
info: Block# = 407 ==>  5, 0, 0
info: Block# = 408 ==>  0, 0, 0
info: Block# = 409 ==>  4, 0, 0
info: Block# = 410 ==>  5, 0, 0
info: Block# = 411 ==>  2, 0, 0
info: Block# = 412 ==>  0, 0, 0
info: Block# = 413 ==>  4, 0, 0
info: Block# = 414 ==>  6, 0, 0
info: Block# = 415 ==>  4, 0, 0
info: Block# = 416 ==>  0, 0, 0
info: Block# = 417 ==>  5, 0, 0
info: Block# = 418 ==>  6, 0, 0
info: Block# = 419 ==>  4, 0, 0
info: Block# = 420 ==>  0, 0, 0
info: Block# = 421 ==>  1, 0, 0
info: Block# = 422 ==>  6, 0, 0
info: Block# = 423 ==>  3, 0, 0
info: Block# = 424 ==>  0, 0, 0
info: Block# = 425 ==>  3, 0, 0
info: Block# = 426 ==>  4, 0, 0
info: Block# = 427 ==>  2, 0, 0
info: Block# = 428 ==>  0, 0, 0
info: Block# = 429 ==>  1, 0, 0
info: Block# = 430 ==>  1, 0, 0
info: Block# = 431 ==>  6, 0, 0
info: Block# = 432 ==>  0, 0, 0
info: Block# = 433 ==>  6, 0, 0
info: Block# = 434 ==>  5, 0, 0
info: Block# = 435 ==>  8, 0, 0
info: Block# = 436 ==>  0, 0, 0
info: Block# = 437 ==>  2, 0, 0
info: Block# = 438 ==>  6, 0, 0
info: Block# = 439 ==>  5, 0, 0
info: Block# = 440 ==>  0, 0, 0
info: Block# = 441 ==>  1, 0, 0
info: Block# = 442 ==>  5, 0, 0
info: Block# = 443 ==>  1, 0, 0
info: Block# = 444 ==>  0, 0, 0
info: Block# = 445 ==>  1, 0, 0
info: Block# = 446 ==>  2, 0, 0
info: Block# = 447 ==>  2, 0, 0
info: Block# = 448 ==>  0, 0, 0
info: Block# = 449 ==>  4, 0, 0
info: Block# = 450 ==>  0, 0, 0
info: Block# = 451 ==>  2, 0, 0
info: Block# = 452 ==>  0, 0, 0
info: Block# = 453 ==>  5, 0, 0
info: Block# = 454 ==>  3, 0, 0
info: Block# = 455 ==>  2, 0, 0
info: Block# = 456 ==>  0, 0, 0
info: Block# = 457 ==>  3, 0, 0
info: Block# = 458 ==>  4, 0, 0
info: Block# = 459 ==>  3, 0, 0
info: Block# = 460 ==>  0, 0, 0
info: Block# = 461 ==>  3, 0, 0
info: Block# = 462 ==>  3, 0, 0
info: Block# = 463 ==>  7, 0, 0
info: Block# = 464 ==>  0, 0, 0
info: Block# = 465 ==>  3, 0, 0
info: Block# = 466 ==>  4, 0, 0
info: Block# = 467 ==>  3, 0, 0
info: Block# = 468 ==>  0, 0, 0
info: Block# = 469 ==>  2, 0, 0
info: Block# = 470 ==>  3, 0, 0
info: Block# = 471 ==>  4, 0, 0
info: Block# = 472 ==>  0, 0, 0
info: Block# = 473 ==>  5, 0, 0
info: Block# = 474 ==>  4, 0, 0
info: Block# = 475 ==>  9, 0, 0
info: Block# = 476 ==>  0, 0, 0
info: Block# = 477 ==>  4, 0, 0
info: Block# = 478 ==>  5, 0, 0
info: Block# = 479 ==>  8, 0, 0
info: Block# = 480 ==>  0, 0, 0
info: Block# = 481 ==>  2, 0, 0
info: Block# = 482 ==>  6, 0, 0
info: Block# = 483 ==>  3, 0, 0
info: Block# = 484 ==>  0, 0, 0
info: Block# = 485 ==>  2, 0, 0
info: Block# = 486 ==>  2, 0, 0
info: Block# = 487 ==>  0, 0, 0
info: Block# = 488 ==>  0, 0, 0
info: Block# = 489 ==>  2, 0, 0
info: Block# = 490 ==>  2, 0, 0
info: Block# = 491 ==>  2, 0, 0
info: Block# = 492 ==>  0, 0, 0
info: Block# = 493 ==>  7, 0, 0
info: Block# = 494 ==>  3, 0, 0
info: Block# = 495 ==>  4, 0, 0
info: Block# = 496 ==>  0, 0, 0
info: Block# = 497 ==>  4, 0, 0
info: Block# = 498 ==>  6, 0, 0
info: Block# = 499 ==>  2, 0, 0
info: Block# = 500 ==>  0, 0, 0
info: Block# = 501 ==>  5, 0, 0
info: Block# = 502 ==>  5, 0, 0
info: Block# = 503 ==>  5, 0, 0
info: Block# = 504 ==>  0, 0, 0
info: Block# = 505 ==>  7, 0, 0
info: Block# = 506 ==>  6, 0, 0
info: Block# = 507 ==>  3, 0, 0
info: Block# = 508 ==>  0, 0, 0
info: Block# = 509 ==>  4, 0, 0
info: Block# = 510 ==>  2, 0, 0
info: Block# = 511 ==>  3, 0, 0
info: Block [0][1] disabled and invalidated 
info: Block [0][2] disabled and invalidated 
info: Block [0][3] disabled and invalidated 
info: Block [1][1] disabled and invalidated 
info: Block [1][2] disabled and invalidated 
info: Block [1][3] disabled and invalidated 
info: Block [2][1] disabled and invalidated 
info: Block [2][2] disabled and invalidated 
info: Block [2][3] disabled and invalidated 
info: Block [3][1] disabled and invalidated 
info: Block [3][2] disabled and invalidated 
info: Block [3][3] disabled and invalidated 
info: Block [4][1] disabled and invalidated 
info: Block [4][2] disabled and invalidated 
info: Block [4][3] disabled and invalidated 
info: Block [5][1] disabled and invalidated 
info: Block [5][2] disabled and invalidated 
info: Block [5][3] disabled and invalidated 
info: Block [6][1] disabled and invalidated 
info: Block [6][2] disabled and invalidated 
info: Block [6][3] disabled and invalidated 
info: Block [7][1] disabled and invalidated 
info: Block [7][2] disabled and invalidated 
info: Block [7][3] disabled and invalidated 
info: Block [8][1] disabled and invalidated 
info: Block [8][2] disabled and invalidated 
info: Block [8][3] disabled and invalidated 
info: Block [9][1] disabled and invalidated 
info: Block [9][2] disabled and invalidated 
info: Block [9][3] disabled and invalidated 
info: Block [10][1] disabled and invalidated 
info: Block [10][2] disabled and invalidated 
info: Block [10][3] disabled and invalidated 
info: Block [11][1] disabled and invalidated 
info: Block [11][2] disabled and invalidated 
info: Block [11][3] disabled and invalidated 
info: Block [12][1] disabled and invalidated 
info: Block [12][2] disabled and invalidated 
info: Block [12][3] disabled and invalidated 
info: Block [13][1] disabled and invalidated 
info: Block [13][2] disabled and invalidated 
info: Block [13][3] disabled and invalidated 
info: Block [14][1] disabled and invalidated 
info: Block [14][2] disabled and invalidated 
info: Block [14][3] disabled and invalidated 
info: Block [15][1] disabled and invalidated 
info: Block [15][2] disabled and invalidated 
info: Block [15][3] disabled and invalidated 
info: Block [16][1] disabled and invalidated 
info: Block [16][2] disabled and invalidated 
info: Block [16][3] disabled and invalidated 
info: Block [17][1] disabled and invalidated 
info: Block [17][2] disabled and invalidated 
info: Block [17][3] disabled and invalidated 
info: Block [18][1] disabled and invalidated 
info: Block [18][2] disabled and invalidated 
info: Block [18][3] disabled and invalidated 
info: Block [19][1] disabled and invalidated 
info: Block [19][2] disabled and invalidated 
info: Block [19][3] disabled and invalidated 
info: Block [20][1] disabled and invalidated 
info: Block [20][2] disabled and invalidated 
info: Block [20][3] disabled and invalidated 
info: Block [21][1] disabled and invalidated 
info: Block [21][2] disabled and invalidated 
info: Block [21][3] disabled and invalidated 
info: Block [22][1] disabled and invalidated 
info: Block [22][2] disabled and invalidated 
info: Block [22][3] disabled and invalidated 
info: Block [23][1] disabled and invalidated 
info: Block [23][2] disabled and invalidated 
info: Block [23][3] disabled and invalidated 
info: Block [24][1] disabled and invalidated 
info: Block [24][2] disabled and invalidated 
info: Block [24][3] disabled and invalidated 
info: Block [25][1] disabled and invalidated 
info: Block [25][2] disabled and invalidated 
info: Block [25][3] disabled and invalidated 
info: Block [26][1] disabled and invalidated 
info: Block [26][2] disabled and invalidated 
info: Block [26][3] disabled and invalidated 
info: Block [27][1] disabled and invalidated 
info: Block [27][2] disabled and invalidated 
info: Block [27][3] disabled and invalidated 
info: Block [28][1] disabled and invalidated 
info: Block [28][2] disabled and invalidated 
info: Block [28][3] disabled and invalidated 
info: Block [29][1] disabled and invalidated 
info: Block [29][2] disabled and invalidated 
info: Block [29][3] disabled and invalidated 
info: Block [30][1] disabled and invalidated 
info: Block [30][2] disabled and invalidated 
info: Block [30][3] disabled and invalidated 
info: Block [31][1] disabled and invalidated 
info: Block [31][2] disabled and invalidated 
info: Block [32][1] disabled and invalidated 
info: Block [32][2] disabled and invalidated 
info: Block [32][3] disabled and invalidated 
info: Block [33][1] disabled and invalidated 
info: Block [33][2] disabled and invalidated 
info: Block [33][3] disabled and invalidated 
info: Block [34][1] disabled and invalidated 
info: Block [34][2] disabled and invalidated 
info: Block [34][3] disabled and invalidated 
info: Block [35][1] disabled and invalidated 
info: Block [35][2] disabled and invalidated 
info: Block [35][3] disabled and invalidated 
info: Block [36][1] disabled and invalidated 
info: Block [36][2] disabled and invalidated 
info: Block [36][3] disabled and invalidated 
info: Block [37][1] disabled and invalidated 
info: Block [37][2] disabled and invalidated 
info: Block [37][3] disabled and invalidated 
info: Block [38][1] disabled and invalidated 
info: Block [38][2] disabled and invalidated 
info: Block [38][3] disabled and invalidated 
info: Block [39][1] disabled and invalidated 
info: Block [39][2] disabled and invalidated 
info: Block [39][3] disabled and invalidated 
info: Block [40][1] disabled and invalidated 
info: Block [40][2] disabled and invalidated 
info: Block [40][3] disabled and invalidated 
info: Block [41][1] disabled and invalidated 
info: Block [41][2] disabled and invalidated 
info: Block [41][3] disabled and invalidated 
info: Block [42][1] disabled and invalidated 
info: Block [42][2] disabled and invalidated 
info: Block [42][3] disabled and invalidated 
info: Block [43][1] disabled and invalidated 
info: Block [43][2] disabled and invalidated 
info: Block [43][3] disabled and invalidated 
info: Block [44][1] disabled and invalidated 
info: Block [44][2] disabled and invalidated 
info: Block [44][3] disabled and invalidated 
info: Block [45][1] disabled and invalidated 
info: Block [45][2] disabled and invalidated 
info: Block [45][3] disabled and invalidated 
info: Block [46][1] disabled and invalidated 
info: Block [46][2] disabled and invalidated 
info: Block [46][3] disabled and invalidated 
info: Block [47][1] disabled and invalidated 
info: Block [47][2] disabled and invalidated 
info: Block [47][3] disabled and invalidated 
info: Block [48][1] disabled and invalidated 
info: Block [48][2] disabled and invalidated 
info: Block [48][3] disabled and invalidated 
info: Block [49][1] disabled and invalidated 
info: Block [49][2] disabled and invalidated 
info: Block [49][3] disabled and invalidated 
info: Block [50][1] disabled and invalidated 
info: Block [50][2] disabled and invalidated 
info: Block [50][3] disabled and invalidated 
info: Block [51][1] disabled and invalidated 
info: Block [51][2] disabled and invalidated 
info: Block [51][3] disabled and invalidated 
info: Block [52][1] disabled and invalidated 
info: Block [52][2] disabled and invalidated 
info: Block [52][3] disabled and invalidated 
info: Block [53][1] disabled and invalidated 
info: Block [53][2] disabled and invalidated 
info: Block [53][3] disabled and invalidated 
info: Block [54][1] disabled and invalidated 
info: Block [54][2] disabled and invalidated 
info: Block [54][3] disabled and invalidated 
info: Block [55][1] disabled and invalidated 
info: Block [55][2] disabled and invalidated 
info: Block [55][3] disabled and invalidated 
info: Block [56][1] disabled and invalidated 
info: Block [56][2] disabled and invalidated 
info: Block [56][3] disabled and invalidated 
info: Block [57][1] disabled and invalidated 
info: Block [57][2] disabled and invalidated 
info: Block [57][3] disabled and invalidated 
info: Block [58][1] disabled and invalidated 
info: Block [58][2] disabled and invalidated 
info: Block [58][3] disabled and invalidated 
info: Block [59][1] disabled and invalidated 
info: Block [59][2] disabled and invalidated 
info: Block [59][3] disabled and invalidated 
info: Block [60][1] disabled and invalidated 
info: Block [60][2] disabled and invalidated 
info: Block [60][3] disabled and invalidated 
info: Block [61][1] disabled and invalidated 
info: Block [61][2] disabled and invalidated 
info: Block [61][3] disabled and invalidated 
info: Block [62][1] disabled and invalidated 
info: Block [62][2] disabled and invalidated 
info: Block [62][3] disabled and invalidated 
info: Block [63][1] disabled and invalidated 
info: Block [63][2] disabled and invalidated 
info: Block [63][3] disabled and invalidated 
info: Block [64][1] disabled and invalidated 
info: Block [64][2] disabled and invalidated 
info: Block [64][3] disabled and invalidated 
info: Block [65][1] disabled and invalidated 
info: Block [65][2] disabled and invalidated 
info: Block [65][3] disabled and invalidated 
info: Block [66][2] disabled and invalidated 
info: Block [66][3] disabled and invalidated 
info: Block [67][1] disabled and invalidated 
info: Block [67][2] disabled and invalidated 
info: Block [67][3] disabled and invalidated 
info: Block [68][1] disabled and invalidated 
info: Block [68][2] disabled and invalidated 
info: Block [68][3] disabled and invalidated 
info: Block [69][1] disabled and invalidated 
info: Block [69][2] disabled and invalidated 
info: Block [69][3] disabled and invalidated 
info: Block [70][1] disabled and invalidated 
info: Block [70][2] disabled and invalidated 
info: Block [70][3] disabled and invalidated 
info: Block [71][1] disabled and invalidated 
info: Block [71][2] disabled and invalidated 
info: Block [71][3] disabled and invalidated 
info: Block [72][1] disabled and invalidated 
info: Block [72][2] disabled and invalidated 
info: Block [72][3] disabled and invalidated 
info: Block [73][1] disabled and invalidated 
info: Block [73][2] disabled and invalidated 
info: Block [73][3] disabled and invalidated 
info: Block [74][1] disabled and invalidated 
info: Block [74][2] disabled and invalidated 
info: Block [74][3] disabled and invalidated 
info: Block [75][1] disabled and invalidated 
info: Block [75][2] disabled and invalidated 
info: Block [75][3] disabled and invalidated 
info: Block [76][1] disabled and invalidated 
info: Block [76][2] disabled and invalidated 
info: Block [76][3] disabled and invalidated 
info: Block [77][1] disabled and invalidated 
info: Block [77][2] disabled and invalidated 
info: Block [77][3] disabled and invalidated 
info: Block [78][1] disabled and invalidated 
info: Block [78][3] disabled and invalidated 
info: Block [79][1] disabled and invalidated 
info: Block [79][2] disabled and invalidated 
info: Block [79][3] disabled and invalidated 
info: Block [80][1] disabled and invalidated 
info: Block [80][2] disabled and invalidated 
info: Block [80][3] disabled and invalidated 
info: Block [81][1] disabled and invalidated 
info: Block [81][2] disabled and invalidated 
info: Block [81][3] disabled and invalidated 
info: Block [82][1] disabled and invalidated 
info: Block [82][2] disabled and invalidated 
info: Block [82][3] disabled and invalidated 
info: Block [83][1] disabled and invalidated 
info: Block [83][2] disabled and invalidated 
info: Block [83][3] disabled and invalidated 
info: Block [84][1] disabled and invalidated 
info: Block [84][2] disabled and invalidated 
info: Block [84][3] disabled and invalidated 
info: Block [85][1] disabled and invalidated 
info: Block [85][2] disabled and invalidated 
info: Block [85][3] disabled and invalidated 
info: Block [86][1] disabled and invalidated 
info: Block [86][2] disabled and invalidated 
info: Block [86][3] disabled and invalidated 
info: Block [87][1] disabled and invalidated 
info: Block [87][2] disabled and invalidated 
info: Block [87][3] disabled and invalidated 
info: Block [88][1] disabled and invalidated 
info: Block [88][2] disabled and invalidated 
info: Block [88][3] disabled and invalidated 
info: Block [89][1] disabled and invalidated 
info: Block [89][2] disabled and invalidated 
info: Block [89][3] disabled and invalidated 
info: Block [90][1] disabled and invalidated 
info: Block [90][2] disabled and invalidated 
info: Block [90][3] disabled and invalidated 
info: Block [91][1] disabled and invalidated 
info: Block [91][2] disabled and invalidated 
info: Block [91][3] disabled and invalidated 
info: Block [92][1] disabled and invalidated 
info: Block [92][2] disabled and invalidated 
info: Block [92][3] disabled and invalidated 
info: Block [93][1] disabled and invalidated 
info: Block [93][2] disabled and invalidated 
info: Block [93][3] disabled and invalidated 
info: Block [94][1] disabled and invalidated 
info: Block [94][2] disabled and invalidated 
info: Block [94][3] disabled and invalidated 
info: Block [95][1] disabled and invalidated 
info: Block [95][2] disabled and invalidated 
info: Block [95][3] disabled and invalidated 
info: Block [96][1] disabled and invalidated 
info: Block [96][2] disabled and invalidated 
info: Block [96][3] disabled and invalidated 
info: Block [97][1] disabled and invalidated 
info: Block [97][2] disabled and invalidated 
info: Block [97][3] disabled and invalidated 
info: Block [98][1] disabled and invalidated 
info: Block [98][2] disabled and invalidated 
info: Block [98][3] disabled and invalidated 
info: Block [99][1] disabled and invalidated 
info: Block [99][2] disabled and invalidated 
info: Block [99][3] disabled and invalidated 
info: Block [100][1] disabled and invalidated 
info: Block [100][2] disabled and invalidated 
info: Block [100][3] disabled and invalidated 
info: Block [101][1] disabled and invalidated 
info: Block [101][2] disabled and invalidated 
info: Block [101][3] disabled and invalidated 
info: Block [102][1] disabled and invalidated 
info: Block [102][2] disabled and invalidated 
info: Block [102][3] disabled and invalidated 
info: Block [103][1] disabled and invalidated 
info: Block [103][2] disabled and invalidated 
info: Block [103][3] disabled and invalidated 
info: Block [104][1] disabled and invalidated 
info: Block [104][2] disabled and invalidated 
info: Block [104][3] disabled and invalidated 
info: Block [105][1] disabled and invalidated 
info: Block [105][2] disabled and invalidated 
info: Block [105][3] disabled and invalidated 
info: Block [106][1] disabled and invalidated 
info: Block [106][2] disabled and invalidated 
info: Block [106][3] disabled and invalidated 
info: Block [107][1] disabled and invalidated 
info: Block [107][2] disabled and invalidated 
info: Block [107][3] disabled and invalidated 
info: Block [108][1] disabled and invalidated 
info: Block [108][2] disabled and invalidated 
info: Block [108][3] disabled and invalidated 
info: Block [109][1] disabled and invalidated 
info: Block [109][2] disabled and invalidated 
info: Block [109][3] disabled and invalidated 
info: Block [110][1] disabled and invalidated 
info: Block [110][2] disabled and invalidated 
info: Block [110][3] disabled and invalidated 
info: Block [111][1] disabled and invalidated 
info: Block [111][2] disabled and invalidated 
info: Block [111][3] disabled and invalidated 
info: Block [112][1] disabled and invalidated 
info: Block [112][3] disabled and invalidated 
info: Block [113][1] disabled and invalidated 
info: Block [113][2] disabled and invalidated 
info: Block [113][3] disabled and invalidated 
info: Block [114][1] disabled and invalidated 
info: Block [114][2] disabled and invalidated 
info: Block [114][3] disabled and invalidated 
info: Block [115][1] disabled and invalidated 
info: Block [115][2] disabled and invalidated 
info: Block [115][3] disabled and invalidated 
info: Block [116][1] disabled and invalidated 
info: Block [116][2] disabled and invalidated 
info: Block [116][3] disabled and invalidated 
info: Block [117][1] disabled and invalidated 
info: Block [117][2] disabled and invalidated 
info: Block [117][3] disabled and invalidated 
info: Block [118][1] disabled and invalidated 
info: Block [118][2] disabled and invalidated 
info: Block [118][3] disabled and invalidated 
info: Block [119][1] disabled and invalidated 
info: Block [119][2] disabled and invalidated 
info: Block [119][3] disabled and invalidated 
info: Block [120][1] disabled and invalidated 
info: Block [120][2] disabled and invalidated 
info: Block [120][3] disabled and invalidated 
info: Block [121][1] disabled and invalidated 
info: Block [121][2] disabled and invalidated 
info: Block [122][1] disabled and invalidated 
info: Block [122][2] disabled and invalidated 
info: Block [122][3] disabled and invalidated 
info: Block [123][1] disabled and invalidated 
info: Block [123][2] disabled and invalidated 
info: Block [123][3] disabled and invalidated 
info: Block [124][1] disabled and invalidated 
info: Block [124][2] disabled and invalidated 
info: Block [124][3] disabled and invalidated 
info: Block [125][1] disabled and invalidated 
info: Block [125][2] disabled and invalidated 
info: Block [125][3] disabled and invalidated 
info: Block [126][1] disabled and invalidated 
info: Block [126][2] disabled and invalidated 
info: Block [126][3] disabled and invalidated 
info: Block [127][1] disabled and invalidated 
info: Block [127][2] disabled and invalidated 
info: Block [127][3] disabled and invalidated 
info: Dumping cache status for current VDD = 440 mV and AFB = 0...
info: Status Bits: Disabled, Faulty, HWPrefetched, Referenced | Dirty, Readable, Writable, Valid
info: Block# = 0 ==>  0
info: Block# = 1 ==> c0
info: Block# = 2 ==> c0
info: Block# = 3 ==> c0
info: Block# = 4 ==>  0
info: Block# = 5 ==> c0
info: Block# = 6 ==> c0
info: Block# = 7 ==> c0
info: Block# = 8 ==>  0
info: Block# = 9 ==> c0
info: Block# = 10 ==> c0
info: Block# = 11 ==> c0
info: Block# = 12 ==>  0
info: Block# = 13 ==> c0
info: Block# = 14 ==> c0
info: Block# = 15 ==> c0
info: Block# = 16 ==>  0
info: Block# = 17 ==> c0
info: Block# = 18 ==> c0
info: Block# = 19 ==> c0
info: Block# = 20 ==>  0
info: Block# = 21 ==> c0
info: Block# = 22 ==> c0
info: Block# = 23 ==> c0
info: Block# = 24 ==>  0
info: Block# = 25 ==> c0
info: Block# = 26 ==> c0
info: Block# = 27 ==> c0
info: Block# = 28 ==>  0
info: Block# = 29 ==> c0
info: Block# = 30 ==> c0
info: Block# = 31 ==> c0
info: Block# = 32 ==>  0
info: Block# = 33 ==> c0
info: Block# = 34 ==> c0
info: Block# = 35 ==> c0
info: Block# = 36 ==>  0
info: Block# = 37 ==> c0
info: Block# = 38 ==> c0
info: Block# = 39 ==> c0
info: Block# = 40 ==>  0
info: Block# = 41 ==> c0
info: Block# = 42 ==> c0
info: Block# = 43 ==> c0
info: Block# = 44 ==>  0
info: Block# = 45 ==> c0
info: Block# = 46 ==> c0
info: Block# = 47 ==> c0
info: Block# = 48 ==>  0
info: Block# = 49 ==> c0
info: Block# = 50 ==> c0
info: Block# = 51 ==> c0
info: Block# = 52 ==>  0
info: Block# = 53 ==> c0
info: Block# = 54 ==> c0
info: Block# = 55 ==> c0
info: Block# = 56 ==>  0
info: Block# = 57 ==> c0
info: Block# = 58 ==> c0
info: Block# = 59 ==> c0
info: Block# = 60 ==>  0
info: Block# = 61 ==> c0
info: Block# = 62 ==> c0
info: Block# = 63 ==> c0
info: Block# = 64 ==>  0
info: Block# = 65 ==> c0
info: Block# = 66 ==> c0
info: Block# = 67 ==> c0
info: Block# = 68 ==>  0
info: Block# = 69 ==> c0
info: Block# = 70 ==> c0
info: Block# = 71 ==> c0
info: Block# = 72 ==>  0
info: Block# = 73 ==> c0
info: Block# = 74 ==> c0
info: Block# = 75 ==> c0
info: Block# = 76 ==>  0
info: Block# = 77 ==> c0
info: Block# = 78 ==> c0
info: Block# = 79 ==> c0
info: Block# = 80 ==>  0
info: Block# = 81 ==> c0
info: Block# = 82 ==> c0
info: Block# = 83 ==> c0
info: Block# = 84 ==>  0
info: Block# = 85 ==> c0
info: Block# = 86 ==> c0
info: Block# = 87 ==> c0
info: Block# = 88 ==>  0
info: Block# = 89 ==> c0
info: Block# = 90 ==> c0
info: Block# = 91 ==> c0
info: Block# = 92 ==>  0
info: Block# = 93 ==> c0
info: Block# = 94 ==> c0
info: Block# = 95 ==> c0
info: Block# = 96 ==>  0
info: Block# = 97 ==> c0
info: Block# = 98 ==> c0
info: Block# = 99 ==> c0
info: Block# = 100 ==>  0
info: Block# = 101 ==> c0
info: Block# = 102 ==> c0
info: Block# = 103 ==> c0
info: Block# = 104 ==>  0
info: Block# = 105 ==> c0
info: Block# = 106 ==> c0
info: Block# = 107 ==> c0
info: Block# = 108 ==>  0
info: Block# = 109 ==> c0
info: Block# = 110 ==> c0
info: Block# = 111 ==> c0
info: Block# = 112 ==>  0
info: Block# = 113 ==> c0
info: Block# = 114 ==> c0
info: Block# = 115 ==> c0
info: Block# = 116 ==>  0
info: Block# = 117 ==> c0
info: Block# = 118 ==> c0
info: Block# = 119 ==> c0
info: Block# = 120 ==>  0
info: Block# = 121 ==> c0
info: Block# = 122 ==> c0
info: Block# = 123 ==> c0
info: Block# = 124 ==>  0
info: Block# = 125 ==> c0
info: Block# = 126 ==> c0
info: Block# = 127 ==>  0
info: Block# = 128 ==>  0
info: Block# = 129 ==> c0
info: Block# = 130 ==> c0
info: Block# = 131 ==> c0
info: Block# = 132 ==>  0
info: Block# = 133 ==> c0
info: Block# = 134 ==> c0
info: Block# = 135 ==> c0
info: Block# = 136 ==>  0
info: Block# = 137 ==> c0
info: Block# = 138 ==> c0
info: Block# = 139 ==> c0
info: Block# = 140 ==>  0
info: Block# = 141 ==> c0
info: Block# = 142 ==> c0
info: Block# = 143 ==> c0
info: Block# = 144 ==>  0
info: Block# = 145 ==> c0
info: Block# = 146 ==> c0
info: Block# = 147 ==> c0
info: Block# = 148 ==>  0
info: Block# = 149 ==> c0
info: Block# = 150 ==> c0
info: Block# = 151 ==> c0
info: Block# = 152 ==>  0
info: Block# = 153 ==> c0
info: Block# = 154 ==> c0
info: Block# = 155 ==> c0
info: Block# = 156 ==>  0
info: Block# = 157 ==> c0
info: Block# = 158 ==> c0
info: Block# = 159 ==> c0
info: Block# = 160 ==>  0
info: Block# = 161 ==> c0
info: Block# = 162 ==> c0
info: Block# = 163 ==> c0
info: Block# = 164 ==>  0
info: Block# = 165 ==> c0
info: Block# = 166 ==> c0
info: Block# = 167 ==> c0
info: Block# = 168 ==>  0
info: Block# = 169 ==> c0
info: Block# = 170 ==> c0
info: Block# = 171 ==> c0
info: Block# = 172 ==>  0
info: Block# = 173 ==> c0
info: Block# = 174 ==> c0
info: Block# = 175 ==> c0
info: Block# = 176 ==>  0
info: Block# = 177 ==> c0
info: Block# = 178 ==> c0
info: Block# = 179 ==> c0
info: Block# = 180 ==>  0
info: Block# = 181 ==> c0
info: Block# = 182 ==> c0
info: Block# = 183 ==> c0
info: Block# = 184 ==>  0
info: Block# = 185 ==> c0
info: Block# = 186 ==> c0
info: Block# = 187 ==> c0
info: Block# = 188 ==>  0
info: Block# = 189 ==> c0
info: Block# = 190 ==> c0
info: Block# = 191 ==> c0
info: Block# = 192 ==>  0
info: Block# = 193 ==> c0
info: Block# = 194 ==> c0
info: Block# = 195 ==> c0
info: Block# = 196 ==>  0
info: Block# = 197 ==> c0
info: Block# = 198 ==> c0
info: Block# = 199 ==> c0
info: Block# = 200 ==>  0
info: Block# = 201 ==> c0
info: Block# = 202 ==> c0
info: Block# = 203 ==> c0
info: Block# = 204 ==>  0
info: Block# = 205 ==> c0
info: Block# = 206 ==> c0
info: Block# = 207 ==> c0
info: Block# = 208 ==>  0
info: Block# = 209 ==> c0
info: Block# = 210 ==> c0
info: Block# = 211 ==> c0
info: Block# = 212 ==>  0
info: Block# = 213 ==> c0
info: Block# = 214 ==> c0
info: Block# = 215 ==> c0
info: Block# = 216 ==>  0
info: Block# = 217 ==> c0
info: Block# = 218 ==> c0
info: Block# = 219 ==> c0
info: Block# = 220 ==>  0
info: Block# = 221 ==> c0
info: Block# = 222 ==> c0
info: Block# = 223 ==> c0
info: Block# = 224 ==>  0
info: Block# = 225 ==> c0
info: Block# = 226 ==> c0
info: Block# = 227 ==> c0
info: Block# = 228 ==>  0
info: Block# = 229 ==> c0
info: Block# = 230 ==> c0
info: Block# = 231 ==> c0
info: Block# = 232 ==>  0
info: Block# = 233 ==> c0
info: Block# = 234 ==> c0
info: Block# = 235 ==> c0
info: Block# = 236 ==>  0
info: Block# = 237 ==> c0
info: Block# = 238 ==> c0
info: Block# = 239 ==> c0
info: Block# = 240 ==>  0
info: Block# = 241 ==> c0
info: Block# = 242 ==> c0
info: Block# = 243 ==> c0
info: Block# = 244 ==>  0
info: Block# = 245 ==> c0
info: Block# = 246 ==> c0
info: Block# = 247 ==> c0
info: Block# = 248 ==>  0
info: Block# = 249 ==> c0
info: Block# = 250 ==> c0
info: Block# = 251 ==> c0
info: Block# = 252 ==>  0
info: Block# = 253 ==> c0
info: Block# = 254 ==> c0
info: Block# = 255 ==> c0
info: Block# = 256 ==>  0
info: Block# = 257 ==> c0
info: Block# = 258 ==> c0
info: Block# = 259 ==> c0
info: Block# = 260 ==>  0
info: Block# = 261 ==> c0
info: Block# = 262 ==> c0
info: Block# = 263 ==> c0
info: Block# = 264 ==>  0
info: Block# = 265 ==>  0
info: Block# = 266 ==> c0
info: Block# = 267 ==> c0
info: Block# = 268 ==>  0
info: Block# = 269 ==> c0
info: Block# = 270 ==> c0
info: Block# = 271 ==> c0
info: Block# = 272 ==>  0
info: Block# = 273 ==> c0
info: Block# = 274 ==> c0
info: Block# = 275 ==> c0
info: Block# = 276 ==>  0
info: Block# = 277 ==> c0
info: Block# = 278 ==> c0
info: Block# = 279 ==> c0
info: Block# = 280 ==>  0
info: Block# = 281 ==> c0
info: Block# = 282 ==> c0
info: Block# = 283 ==> c0
info: Block# = 284 ==>  0
info: Block# = 285 ==> c0
info: Block# = 286 ==> c0
info: Block# = 287 ==> c0
info: Block# = 288 ==>  0
info: Block# = 289 ==> c0
info: Block# = 290 ==> c0
info: Block# = 291 ==> c0
info: Block# = 292 ==>  0
info: Block# = 293 ==> c0
info: Block# = 294 ==> c0
info: Block# = 295 ==> c0
info: Block# = 296 ==>  0
info: Block# = 297 ==> c0
info: Block# = 298 ==> c0
info: Block# = 299 ==> c0
info: Block# = 300 ==>  0
info: Block# = 301 ==> c0
info: Block# = 302 ==> c0
info: Block# = 303 ==> c0
info: Block# = 304 ==>  0
info: Block# = 305 ==> c0
info: Block# = 306 ==> c0
info: Block# = 307 ==> c0
info: Block# = 308 ==>  0
info: Block# = 309 ==> c0
info: Block# = 310 ==> c0
info: Block# = 311 ==> c0
info: Block# = 312 ==>  0
info: Block# = 313 ==> c0
info: Block# = 314 ==>  0
info: Block# = 315 ==> c0
info: Block# = 316 ==>  0
info: Block# = 317 ==> c0
info: Block# = 318 ==> c0
info: Block# = 319 ==> c0
info: Block# = 320 ==>  0
info: Block# = 321 ==> c0
info: Block# = 322 ==> c0
info: Block# = 323 ==> c0
info: Block# = 324 ==>  0
info: Block# = 325 ==> c0
info: Block# = 326 ==> c0
info: Block# = 327 ==> c0
info: Block# = 328 ==>  0
info: Block# = 329 ==> c0
info: Block# = 330 ==> c0
info: Block# = 331 ==> c0
info: Block# = 332 ==>  0
info: Block# = 333 ==> c0
info: Block# = 334 ==> c0
info: Block# = 335 ==> c0
info: Block# = 336 ==>  0
info: Block# = 337 ==> c0
info: Block# = 338 ==> c0
info: Block# = 339 ==> c0
info: Block# = 340 ==>  0
info: Block# = 341 ==> c0
info: Block# = 342 ==> c0
info: Block# = 343 ==> c0
info: Block# = 344 ==>  0
info: Block# = 345 ==> c0
info: Block# = 346 ==> c0
info: Block# = 347 ==> c0
info: Block# = 348 ==>  0
info: Block# = 349 ==> c0
info: Block# = 350 ==> c0
info: Block# = 351 ==> c0
info: Block# = 352 ==>  0
info: Block# = 353 ==> c0
info: Block# = 354 ==> c0
info: Block# = 355 ==> c0
info: Block# = 356 ==>  0
info: Block# = 357 ==> c0
info: Block# = 358 ==> c0
info: Block# = 359 ==> c0
info: Block# = 360 ==>  0
info: Block# = 361 ==> c0
info: Block# = 362 ==> c0
info: Block# = 363 ==> c0
info: Block# = 364 ==>  0
info: Block# = 365 ==> c0
info: Block# = 366 ==> c0
info: Block# = 367 ==> c0
info: Block# = 368 ==>  0
info: Block# = 369 ==> c0
info: Block# = 370 ==> c0
info: Block# = 371 ==> c0
info: Block# = 372 ==>  0
info: Block# = 373 ==> c0
info: Block# = 374 ==> c0
info: Block# = 375 ==> c0
info: Block# = 376 ==>  0
info: Block# = 377 ==> c0
info: Block# = 378 ==> c0
info: Block# = 379 ==> c0
info: Block# = 380 ==>  0
info: Block# = 381 ==> c0
info: Block# = 382 ==> c0
info: Block# = 383 ==> c0
info: Block# = 384 ==>  0
info: Block# = 385 ==> c0
info: Block# = 386 ==> c0
info: Block# = 387 ==> c0
info: Block# = 388 ==>  0
info: Block# = 389 ==> c0
info: Block# = 390 ==> c0
info: Block# = 391 ==> c0
info: Block# = 392 ==>  0
info: Block# = 393 ==> c0
info: Block# = 394 ==> c0
info: Block# = 395 ==> c0
info: Block# = 396 ==>  0
info: Block# = 397 ==> c0
info: Block# = 398 ==> c0
info: Block# = 399 ==> c0
info: Block# = 400 ==>  0
info: Block# = 401 ==> c0
info: Block# = 402 ==> c0
info: Block# = 403 ==> c0
info: Block# = 404 ==>  0
info: Block# = 405 ==> c0
info: Block# = 406 ==> c0
info: Block# = 407 ==> c0
info: Block# = 408 ==>  0
info: Block# = 409 ==> c0
info: Block# = 410 ==> c0
info: Block# = 411 ==> c0
info: Block# = 412 ==>  0
info: Block# = 413 ==> c0
info: Block# = 414 ==> c0
info: Block# = 415 ==> c0
info: Block# = 416 ==>  0
info: Block# = 417 ==> c0
info: Block# = 418 ==> c0
info: Block# = 419 ==> c0
info: Block# = 420 ==>  0
info: Block# = 421 ==> c0
info: Block# = 422 ==> c0
info: Block# = 423 ==> c0
info: Block# = 424 ==>  0
info: Block# = 425 ==> c0
info: Block# = 426 ==> c0
info: Block# = 427 ==> c0
info: Block# = 428 ==>  0
info: Block# = 429 ==> c0
info: Block# = 430 ==> c0
info: Block# = 431 ==> c0
info: Block# = 432 ==>  0
info: Block# = 433 ==> c0
info: Block# = 434 ==> c0
info: Block# = 435 ==> c0
info: Block# = 436 ==>  0
info: Block# = 437 ==> c0
info: Block# = 438 ==> c0
info: Block# = 439 ==> c0
info: Block# = 440 ==>  0
info: Block# = 441 ==> c0
info: Block# = 442 ==> c0
info: Block# = 443 ==> c0
info: Block# = 444 ==>  0
info: Block# = 445 ==> c0
info: Block# = 446 ==> c0
info: Block# = 447 ==> c0
info: Block# = 448 ==>  0
info: Block# = 449 ==> c0
info: Block# = 450 ==>  0
info: Block# = 451 ==> c0
info: Block# = 452 ==>  0
info: Block# = 453 ==> c0
info: Block# = 454 ==> c0
info: Block# = 455 ==> c0
info: Block# = 456 ==>  0
info: Block# = 457 ==> c0
info: Block# = 458 ==> c0
info: Block# = 459 ==> c0
info: Block# = 460 ==>  0
info: Block# = 461 ==> c0
info: Block# = 462 ==> c0
info: Block# = 463 ==> c0
info: Block# = 464 ==>  0
info: Block# = 465 ==> c0
info: Block# = 466 ==> c0
info: Block# = 467 ==> c0
info: Block# = 468 ==>  0
info: Block# = 469 ==> c0
info: Block# = 470 ==> c0
info: Block# = 471 ==> c0
info: Block# = 472 ==>  0
info: Block# = 473 ==> c0
info: Block# = 474 ==> c0
info: Block# = 475 ==> c0
info: Block# = 476 ==>  0
info: Block# = 477 ==> c0
info: Block# = 478 ==> c0
info: Block# = 479 ==> c0
info: Block# = 480 ==>  0
info: Block# = 481 ==> c0
info: Block# = 482 ==> c0
info: Block# = 483 ==> c0
info: Block# = 484 ==>  0
info: Block# = 485 ==> c0
info: Block# = 486 ==> c0
info: Block# = 487 ==>  0
info: Block# = 488 ==>  0
info: Block# = 489 ==> c0
info: Block# = 490 ==> c0
info: Block# = 491 ==> c0
info: Block# = 492 ==>  0
info: Block# = 493 ==> c0
info: Block# = 494 ==> c0
info: Block# = 495 ==> c0
info: Block# = 496 ==>  0
info: Block# = 497 ==> c0
info: Block# = 498 ==> c0
info: Block# = 499 ==> c0
info: Block# = 500 ==>  0
info: Block# = 501 ==> c0
info: Block# = 502 ==> c0
info: Block# = 503 ==> c0
info: Block# = 504 ==>  0
info: Block# = 505 ==> c0
info: Block# = 506 ==> c0
info: Block# = 507 ==> c0
info: Block# = 508 ==>  0
info: Block# = 509 ==> c0
info: Block# = 510 ==> c0
info: Block# = 511 ==> c0
Switch at instruction count:3390
info: Entering event queue @ 0.  Starting simulation...
info: Increasing stack size by one page.
Switched CPUS @ tick 1711000
switching cpus
**** REAL SIMULATION ****
info: Entering event queue @ 1711000.  Starting simulation...
info: Increasing stack size by one page.
info: Increasing stack size by one page.
info: Increasing stack size by one page.
info: Increasing stack size by one page.
info: Increasing stack size by one page.
info: Increasing stack size by one page.
info: Increasing stack size by one page.
info: Increasing stack size by one page.
info: Increasing stack size by one page.
info: Increasing stack size by one page.
info: Increasing stack size by one page.
info: Increasing stack size by one page.
info: Increasing stack size by one page.
info: Increasing stack size by one page.
info: Increasing stack size by one page.
info: Increasing stack size by one page.
info: Increasing stack size by one page.
info: Increasing stack size by one page.
info: Increasing stack size by one page.
info: Increasing stack size by one page.
info: Increasing stack size by one page.
info: Increasing stack size by one page.
info: Increasing stack size by one page.
info: Increasing stack size by one page.
info: Increasing stack size by one page.
info: Increasing stack size by one page.
info: Increasing stack size by one page.
info: Increasing stack size by one page.
info: Increasing stack size by one page.
info: Increasing stack size by one page.
info: Increasing stack size by one page.
info: Increasing stack size by one page.
info: Increasing stack size by one page.
info: Increasing stack size by one page.
info: Increasing stack size by one page.
info: Increasing stack size by one page.
info: Increasing stack size by one page.
info: Increasing stack size by one page.
info: Increasing stack size by one page.
info: Increasing stack size by one page.
info: Increasing stack size by one page.
info: Increasing stack size by one page.
info: Increasing stack size by one page.
info: Increasing stack size by one page.
info: Increasing stack size by one page.
15984000: global: Approximate Region Added: begin=0x1200cf6b0, end=0x1200e2b80, Table Size=1
33675500: global: Approximate Region Added: begin=0x1200cf470, end=0x1200cf674, Table Size=2
susan_edges
susan_thin
i=4, j=112, y=216, x=366
i=4, j=111, y=216, x=366
i=4, j=111, y=216, x=366
i=4, j=112, y=216, x=366
i=4, j=113, y=216, x=366
i=4, j=304, y=216, x=366
i=4, j=305, y=216, x=366
i=4, j=306, y=216, x=366
i=4, j=331, y=216, x=366
i=4, j=333, y=216, x=366
i=4, j=334, y=216, x=366
i=4, j=335, y=216, x=366
i=4, j=336, y=216, x=366
i=4, j=339, y=216, x=366
i=4, j=346, y=216, x=366
i=4, j=346, y=216, x=366
i=4, j=352, y=216, x=366
i=5, j=304, y=216, x=366
i=5, j=338, y=216, x=366
i=5, j=345, y=216, x=366
i=5, j=350, y=216, x=366
i=6, j=196, y=216, x=366
i=6, j=345, y=216, x=366
i=6, j=350, y=216, x=366
i=6, j=351, y=216, x=366
i=6, j=352, y=216, x=366
i=5, j=352, y=216, x=366
i=6, j=196, y=216, x=366
i=6, j=345, y=216, x=366
i=6, j=350, y=216, x=366
i=5, j=350, y=216, x=366
i=4, j=349, y=216, x=366
i=4, j=349, y=216, x=366
i=5, j=304, y=216, x=366
i=5, j=338, y=216, x=366
i=5, j=345, y=216, x=366
i=5, j=350, y=216, x=366
i=5, j=352, y=216, x=366
i=6, j=196, y=216, x=366
i=6, j=345, y=216, x=366
i=6, j=351, y=216, x=366
i=6, j=352, y=216, x=366
i=5, j=352, y=216, x=366
i=4, j=352, y=216, x=366
i=4, j=352, y=216, x=366
i=5, j=304, y=216, x=366
i=5, j=338, y=216, x=366
i=5, j=345, y=216, x=366
i=5, j=350, y=216, x=366
i=5, j=352, y=216, x=366
i=6, j=196, y=216, x=366
i=6, j=345, y=216, x=366
i=6, j=351, y=216, x=366
i=7, j=195, y=216, x=366
i=6, j=196, y=216, x=366
i=6, j=345, y=216, x=366
i=6, j=351, y=216, x=366
i=7, j=196, y=216, x=366
i=7, j=245, y=216, x=366
i=7, j=246, y=216, x=366
i=7, j=299, y=216, x=366
i=7, j=301, y=216, x=366
i=7, j=323, y=216, x=366
i=7, j=324, y=216, x=366
i=7, j=346, y=216, x=366
i=8, j=174, y=216, x=366
i=8, j=194, y=216, x=366
i=8, j=195, y=216, x=366
i=8, j=285, y=216, x=366
i=8, j=288, y=216, x=366
i=8, j=299, y=216, x=366
i=7, j=299, y=216, x=366
i=7, j=301, y=216, x=366
i=7, j=323, y=216, x=366
i=7, j=324, y=216, x=366
i=7, j=346, y=216, x=366
i=8, j=194, y=216, x=366
i=7, j=196, y=216, x=366
i=7, j=245, y=216, x=366
i=7, j=246, y=216, x=366
i=7, j=299, y=216, x=366
i=7, j=301, y=216, x=366
i=7, j=323, y=216, x=366
i=7, j=324, y=216, x=366
i=7, j=346, y=216, x=366
i=8, j=195, y=216, x=366
i=8, j=300, y=216, x=366
i=8, j=301, y=216, x=366
i=7, j=301, y=216, x=366
i=7, j=323, y=216, x=366
i=7, j=324, y=216, x=366
i=7, j=346, y=216, x=366
i=8, j=195, y=216, x=366
i=8, j=300, y=216, x=366
i=8, j=302, y=216, x=366
i=8, j=310, y=216, x=366
i=8, j=321, y=216, x=366
i=8, j=322, y=216, x=366
i=8, j=345, y=216, x=366
i=7, j=344, y=216, x=366
i=7, j=346, y=216, x=366
i=8, j=195, y=216, x=366
i=8, j=302, y=216, x=366
i=8, j=321, y=216, x=366
i=8, j=322, y=216, x=366
i=8, j=345, y=216, x=366
i=8, j=347, y=216, x=366
i=8, j=348, y=216, x=366
i=7, j=348, y=216, x=366
i=8, j=195, y=216, x=366
i=8, j=302, y=216, x=366
i=8, j=321, y=216, x=366
i=8, j=322, y=216, x=366
i=8, j=345, y=216, x=366
i=8, j=347, y=216, x=366
i=8, j=348, y=216, x=366
i=7, j=348, y=216, x=366
i=6, j=349, y=216, x=366
i=6, j=351, y=216, x=366
i=7, j=196, y=216, x=366
i=7, j=245, y=216, x=366
i=7, j=246, y=216, x=366
i=7, j=299, y=216, x=366
i=7, j=300, y=216, x=366
i=7, j=301, y=216, x=366
i=7, j=323, y=216, x=366
i=7, j=324, y=216, x=366
i=7, j=344, y=216, x=366
i=7, j=346, y=216, x=366
i=7, j=348, y=216, x=366
i=8, j=195, y=216, x=366
i=8, j=299, y=216, x=366
i=8, j=302, y=216, x=366
i=8, j=321, y=216, x=366
i=8, j=322, y=216, x=366
i=8, j=345, y=216, x=366
i=8, j=347, y=216, x=366
i=8, j=360, y=216, x=366
i=9, j=194, y=216, x=366
i=9, j=283, y=216, x=366
i=9, j=301, y=216, x=366
i=9, j=300, y=216, x=366
i=9, j=301, y=216, x=366
i=9, j=334, y=216, x=366
i=9, j=341, y=216, x=366
i=10, j=86, y=216, x=366
i=10, j=284, y=216, x=366
i=10, j=334, y=216, x=366
i=9, j=334, y=216, x=366
i=9, j=341, y=216, x=366
i=10, j=284, y=216, x=366
i=10, j=335, y=216, x=366
i=10, j=336, y=216, x=366
i=9, j=341, y=216, x=366
i=10, j=284, y=216, x=366
i=10, j=335, y=216, x=366
i=10, j=341, y=216, x=366
i=9, j=341, y=216, x=366
i=8, j=342, y=216, x=366
i=8, j=343, y=216, x=366
i=8, j=345, y=216, x=366
i=9, j=194, y=216, x=366
i=9, j=283, y=216, x=366
i=9, j=300, y=216, x=366
i=9, j=301, y=216, x=366
i=9, j=334, y=216, x=366
i=9, j=341, y=216, x=366
i=10, j=284, y=216, x=366
i=10, j=335, y=216, x=366
i=10, j=342, y=216, x=366
i=10, j=346, y=216, x=366
i=9, j=346, y=216, x=366
i=10, j=284, y=216, x=366
i=10, j=335, y=216, x=366
i=10, j=341, y=216, x=366
i=10, j=346, y=216, x=366
i=10, j=358, y=216, x=366
i=10, j=359, y=216, x=366
i=11, j=29, y=216, x=366
i=11, j=30, y=216, x=366
i=11, j=336, y=216, x=366
i=11, j=337, y=216, x=366
i=11, j=341, y=216, x=366
i=11, j=342, y=216, x=366
i=11, j=346, y=216, x=366
i=11, j=358, y=216, x=366
i=12, j=15, y=216, x=366
i=12, j=16, y=216, x=366
i=12, j=29, y=216, x=366
i=12, j=84, y=216, x=366
i=12, j=85, y=216, x=366
i=12, j=86, y=216, x=366
i=12, j=87, y=216, x=366
i=12, j=138, y=216, x=366
i=12, j=304, y=216, x=366
i=12, j=324, y=216, x=366
i=12, j=325, y=216, x=366
i=11, j=325, y=216, x=366
i=11, j=336, y=216, x=366
i=11, j=337, y=216, x=366
i=11, j=341, y=216, x=366
i=11, j=342, y=216, x=366
i=11, j=346, y=216, x=366
i=11, j=358, y=216, x=366
i=12, j=15, y=216, x=366
i=12, j=16, y=216, x=366
i=12, j=29, y=216, x=366
i=12, j=84, y=216, x=366
i=12, j=85, y=216, x=366
i=12, j=86, y=216, x=366
i=12, j=87, y=216, x=366
i=12, j=304, y=216, x=366
i=12, j=324, y=216, x=366
i=12, j=325, y=216, x=366
i=11, j=325, y=216, x=366
i=10, j=324, y=216, x=366
i=10, j=335, y=216, x=366
i=10, j=341, y=216, x=366
i=10, j=346, y=216, x=366
i=10, j=358, y=216, x=366
i=10, j=359, y=216, x=366
i=11, j=29, y=216, x=366
i=11, j=30, y=216, x=366
i=11, j=325, y=216, x=366
i=11, j=336, y=216, x=366
i=11, j=337, y=216, x=366
i=11, j=341, y=216, x=366
i=11, j=342, y=216, x=366
i=11, j=346, y=216, x=366
i=11, j=358, y=216, x=366
i=12, j=15, y=216, x=366
i=12, j=16, y=216, x=366
i=12, j=29, y=216, x=366
i=12, j=84, y=216, x=366
i=12, j=85, y=216, x=366
i=12, j=86, y=216, x=366
i=12, j=87, y=216, x=366
i=12, j=304, y=216, x=366
i=12, j=324, y=216, x=366
i=12, j=345, y=216, x=366
i=12, j=350, y=216, x=366
i=12, j=349, y=216, x=366
i=12, j=348, y=216, x=366
i=12, j=347, y=216, x=366
i=12, j=348, y=216, x=366
i=12, j=349, y=216, x=366
i=12, j=350, y=216, x=366
i=13, j=15, y=216, x=366
i=13, j=284, y=216, x=366
i=13, j=304, y=216, x=366
i=13, j=305, y=216, x=366
i=13, j=306, y=216, x=366
i=13, j=307, y=216, x=366
i=13, j=308, y=216, x=366
i=13, j=320, y=216, x=366
i=13, j=321, y=216, x=366
i=13, j=322, y=216, x=366
i=13, j=323, y=216, x=366
i=13, j=345, y=216, x=366
i=13, j=351, y=216, x=366
i=13, j=352, y=216, x=366
i=13, j=353, y=216, x=366
i=13, j=354, y=216, x=366
i=13, j=355, y=216, x=366
i=13, j=356, y=216, x=366
i=13, j=357, y=216, x=366
i=13, j=359, y=216, x=366
i=13, j=360, y=216, x=366
i=13, j=361, y=216, x=366
i=13, j=15, y=216, x=366
i=13, j=304, y=216, x=366
i=13, j=305, y=216, x=366
i=13, j=306, y=216, x=366
i=13, j=307, y=216, x=366
i=13, j=308, y=216, x=366
i=13, j=320, y=216, x=366
i=13, j=321, y=216, x=366
i=13, j=322, y=216, x=366
i=13, j=323, y=216, x=366
i=13, j=345, y=216, x=366
i=13, j=351, y=216, x=366
i=13, j=352, y=216, x=366
i=13, j=353, y=216, x=366
i=13, j=354, y=216, x=366
i=13, j=355, y=216, x=366
i=13, j=356, y=216, x=366
i=13, j=357, y=216, x=366
i=13, j=359, y=216, x=366
i=13, j=360, y=216, x=366
i=13, j=361, y=216, x=366
i=14, j=7, y=216, x=366
i=13, j=15, y=216, x=366
i=13, j=304, y=216, x=366
i=13, j=305, y=216, x=366
i=13, j=306, y=216, x=366
i=13, j=307, y=216, x=366
i=13, j=308, y=216, x=366
i=13, j=320, y=216, x=366
i=13, j=321, y=216, x=366
i=13, j=322, y=216, x=366
i=13, j=323, y=216, x=366
i=13, j=345, y=216, x=366
i=13, j=351, y=216, x=366
i=13, j=352, y=216, x=366
i=13, j=353, y=216, x=366
i=13, j=354, y=216, x=366
i=13, j=355, y=216, x=366
i=13, j=356, y=216, x=366
i=13, j=357, y=216, x=366
i=13, j=359, y=216, x=366
i=13, j=360, y=216, x=366
i=13, j=361, y=216, x=366
i=14, j=8, y=216, x=366
i=14, j=155, y=216, x=366
i=14, j=309, y=216, x=366
i=14, j=310, y=216, x=366
i=13, j=311, y=216, x=366
i=13, j=320, y=216, x=366
i=13, j=321, y=216, x=366
i=13, j=322, y=216, x=366
i=13, j=323, y=216, x=366
i=13, j=345, y=216, x=366
i=13, j=351, y=216, x=366
i=13, j=352, y=216, x=366
i=13, j=353, y=216, x=366
i=13, j=354, y=216, x=366
i=13, j=355, y=216, x=366
i=13, j=356, y=216, x=366
i=13, j=357, y=216, x=366
i=13, j=359, y=216, x=366
i=13, j=360, y=216, x=366
i=13, j=361, y=216, x=366
i=14, j=8, y=216, x=366
i=14, j=309, y=216, x=366
i=14, j=310, y=216, x=366
i=14, j=312, y=216, x=366
i=14, j=313, y=216, x=366
i=14, j=323, y=216, x=366
i=14, j=345, y=216, x=366
i=14, j=358, y=216, x=366
i=15, j=6, y=216, x=366
i=15, j=7, y=216, x=366
i=15, j=303, y=216, x=366
i=15, j=314, y=216, x=366
i=15, j=334, y=216, x=366
i=15, j=345, y=216, x=366
i=15, j=352, y=216, x=366
i=14, j=353, y=216, x=366
i=15, j=6, y=216, x=366
i=15, j=7, y=216, x=366
i=15, j=303, y=216, x=366
i=15, j=314, y=216, x=366
i=15, j=345, y=216, x=366
i=15, j=352, y=216, x=366
i=15, j=355, y=216, x=366
i=15, j=356, y=216, x=366
i=16, j=14, y=216, x=366
i=16, j=284, y=216, x=366
i=16, j=285, y=216, x=366
i=16, j=303, y=216, x=366
i=16, j=315, y=216, x=366
i=16, j=317, y=216, x=366
i=15, j=316, y=216, x=366
i=15, j=345, y=216, x=366
i=15, j=352, y=216, x=366
i=15, j=355, y=216, x=366
i=15, j=356, y=216, x=366
i=16, j=284, y=216, x=366
i=16, j=285, y=216, x=366
i=16, j=303, y=216, x=366
i=16, j=315, y=216, x=366
i=16, j=317, y=216, x=366
i=16, j=345, y=216, x=366
i=16, j=350, y=216, x=366
i=15, j=352, y=216, x=366
i=15, j=355, y=216, x=366
i=15, j=356, y=216, x=366
i=16, j=284, y=216, x=366
i=16, j=285, y=216, x=366
i=16, j=303, y=216, x=366
i=16, j=315, y=216, x=366
i=16, j=317, y=216, x=366
i=16, j=345, y=216, x=366
i=16, j=351, y=216, x=366
i=16, j=355, y=216, x=366
i=16, j=359, y=216, x=366
i=17, j=21, y=216, x=366
i=17, j=22, y=216, x=366
i=17, j=68, y=216, x=366
i=17, j=305, y=216, x=366
i=16, j=305, y=216, x=366
i=16, j=315, y=216, x=366
i=16, j=317, y=216, x=366
i=16, j=345, y=216, x=366
i=16, j=351, y=216, x=366
i=16, j=355, y=216, x=366
i=17, j=21, y=216, x=366
i=17, j=22, y=216, x=366
i=17, j=305, y=216, x=366
i=17, j=306, y=216, x=366
i=17, j=312, y=216, x=366
i=16, j=312, y=216, x=366
i=16, j=315, y=216, x=366
i=16, j=317, y=216, x=366
i=16, j=345, y=216, x=366
i=16, j=351, y=216, x=366
i=16, j=355, y=216, x=366
i=17, j=21, y=216, x=366
i=17, j=22, y=216, x=366
i=17, j=305, y=216, x=366
i=17, j=306, y=216, x=366
i=17, j=312, y=216, x=366
i=17, j=313, y=216, x=366
i=17, j=314, y=216, x=366
i=17, j=316, y=216, x=366
i=17, j=344, y=216, x=366
i=17, j=345, y=216, x=366
i=17, j=350, y=216, x=366
i=16, j=349, y=216, x=366
i=15, j=348, y=216, x=366
i=14, j=347, y=216, x=366
i=14, j=353, y=216, x=366
i=15, j=6, y=216, x=366
i=15, j=7, y=216, x=366
i=15, j=303, y=216, x=366
i=15, j=314, y=216, x=366
i=15, j=316, y=216, x=366
i=15, j=345, y=216, x=366
i=15, j=348, y=216, x=366
i=15, j=352, y=216, x=366
i=15, j=355, y=216, x=366
i=15, j=356, y=216, x=366
i=16, j=284, y=216, x=366
i=16, j=285, y=216, x=366
i=16, j=303, y=216, x=366
i=16, j=305, y=216, x=366
i=16, j=312, y=216, x=366
i=16, j=315, y=216, x=366
i=16, j=317, y=216, x=366
i=16, j=345, y=216, x=366
i=16, j=349, y=216, x=366
i=16, j=351, y=216, x=366
i=16, j=355, y=216, x=366
i=17, j=21, y=216, x=366
i=17, j=22, y=216, x=366
i=17, j=305, y=216, x=366
i=17, j=306, y=216, x=366
i=17, j=312, y=216, x=366
i=17, j=313, y=216, x=366
i=17, j=314, y=216, x=366
i=17, j=316, y=216, x=366
i=17, j=345, y=216, x=366
i=17, j=350, y=216, x=366
i=17, j=355, y=216, x=366
i=18, j=15, y=216, x=366
i=18, j=16, y=216, x=366
i=18, j=18, y=216, x=366
i=17, j=18, y=216, x=366
i=17, j=19, y=216, x=366
i=17, j=21, y=216, x=366
i=17, j=22, y=216, x=366
i=17, j=305, y=216, x=366
i=17, j=306, y=216, x=366
i=17, j=312, y=216, x=366
i=17, j=313, y=216, x=366
i=17, j=314, y=216, x=366
i=17, j=316, y=216, x=366
i=17, j=345, y=216, x=366
i=17, j=355, y=216, x=366
i=18, j=15, y=216, x=366
i=18, j=16, y=216, x=366
i=18, j=18, y=216, x=366
i=18, j=20, y=216, x=366
i=18, j=23, y=216, x=366
i=18, j=28, y=216, x=366
i=18, j=29, y=216, x=366
i=18, j=30, y=216, x=366
i=17, j=305, y=216, x=366
i=17, j=306, y=216, x=366
i=17, j=312, y=216, x=366
i=17, j=313, y=216, x=366
i=17, j=314, y=216, x=366
i=17, j=316, y=216, x=366
i=17, j=345, y=216, x=366
i=17, j=355, y=216, x=366
i=18, j=15, y=216, x=366
i=18, j=16, y=216, x=366
i=18, j=18, y=216, x=366
i=18, j=20, y=216, x=366
i=18, j=23, y=216, x=366
i=18, j=28, y=216, x=366
i=18, j=29, y=216, x=366
i=18, j=32, y=216, x=366
i=18, j=31, y=216, x=366
i=18, j=32, y=216, x=366
i=18, j=33, y=216, x=366
i=18, j=34, y=216, x=366
i=18, j=35, y=216, x=366
i=18, j=36, y=216, x=366
i=18, j=37, y=216, x=366
i=18, j=38, y=216, x=366
i=18, j=41, y=216, x=366
i=18, j=42, y=216, x=366
i=18, j=43, y=216, x=366
i=18, j=45, y=216, x=366
i=18, j=44, y=216, x=366
i=18, j=45, y=216, x=366
i=18, j=46, y=216, x=366
i=18, j=47, y=216, x=366
i=18, j=48, y=216, x=366
i=18, j=58, y=216, x=366
i=18, j=61, y=216, x=366
i=18, j=62, y=216, x=366
i=18, j=63, y=216, x=366
i=18, j=64, y=216, x=366
i=18, j=65, y=216, x=366
i=18, j=66, y=216, x=366
i=17, j=67, y=216, x=366
i=17, j=68, y=216, x=366
i=17, j=305, y=216, x=366
i=17, j=306, y=216, x=366
i=17, j=312, y=216, x=366
i=17, j=313, y=216, x=366
i=17, j=314, y=216, x=366
i=17, j=316, y=216, x=366
i=17, j=345, y=216, x=366
i=17, j=355, y=216, x=366
i=18, j=15, y=216, x=366
i=18, j=16, y=216, x=366
i=18, j=18, y=216, x=366
i=18, j=20, y=216, x=366
i=18, j=23, y=216, x=366
i=18, j=28, y=216, x=366
i=18, j=29, y=216, x=366
i=18, j=31, y=216, x=366
i=18, j=32, y=216, x=366
i=18, j=33, y=216, x=366
i=18, j=34, y=216, x=366
i=18, j=35, y=216, x=366
i=18, j=36, y=216, x=366
i=18, j=37, y=216, x=366
i=18, j=38, y=216, x=366
i=18, j=41, y=216, x=366
i=18, j=42, y=216, x=366
i=18, j=43, y=216, x=366
i=17, j=67, y=216, x=366
i=17, j=68, y=216, x=366
i=17, j=305, y=216, x=366
i=17, j=306, y=216, x=366
i=17, j=312, y=216, x=366
i=17, j=313, y=216, x=366
i=17, j=314, y=216, x=366
i=17, j=316, y=216, x=366
i=17, j=345, y=216, x=366
i=17, j=355, y=216, x=366
i=18, j=15, y=216, x=366
i=18, j=16, y=216, x=366
i=18, j=18, y=216, x=366
i=18, j=20, y=216, x=366
i=18, j=23, y=216, x=366
i=18, j=28, y=216, x=366
i=18, j=29, y=216, x=366
i=18, j=31, y=216, x=366
i=18, j=32, y=216, x=366
i=18, j=33, y=216, x=366
i=18, j=34, y=216, x=366
i=18, j=35, y=216, x=366
i=18, j=36, y=216, x=366
i=18, j=37, y=216, x=366
i=18, j=38, y=216, x=366
i=18, j=41, y=216, x=366
i=18, j=42, y=216, x=366
i=18, j=44, y=216, x=366
i=18, j=45, y=216, x=366
i=18, j=46, y=216, x=366
i=18, j=47, y=216, x=366
i=18, j=48, y=216, x=366
i=18, j=61, y=216, x=366
i=18, j=62, y=216, x=366
i=18, j=63, y=216, x=366
i=18, j=64, y=216, x=366
i=18, j=65, y=216, x=366
i=18, j=66, y=216, x=366
i=18, j=72, y=216, x=366
i=18, j=73, y=216, x=366
i=18, j=74, y=216, x=366
i=18, j=75, y=216, x=366
i=17, j=305, y=216, x=366
i=17, j=306, y=216, x=366
i=17, j=312, y=216, x=366
i=17, j=313, y=216, x=366
i=17, j=314, y=216, x=366
i=17, j=316, y=216, x=366
i=17, j=345, y=216, x=366
i=17, j=355, y=216, x=366
i=18, j=15, y=216, x=366
i=18, j=16, y=216, x=366
i=18, j=18, y=216, x=366
i=18, j=20, y=216, x=366
i=18, j=23, y=216, x=366
i=18, j=28, y=216, x=366
i=18, j=29, y=216, x=366
i=18, j=31, y=216, x=366
i=18, j=32, y=216, x=366
i=18, j=33, y=216, x=366
i=18, j=34, y=216, x=366
i=18, j=35, y=216, x=366
i=18, j=36, y=216, x=366
i=18, j=37, y=216, x=366
i=18, j=38, y=216, x=366
i=18, j=41, y=216, x=366
i=18, j=42, y=216, x=366
i=18, j=44, y=216, x=366
i=18, j=45, y=216, x=366
i=18, j=46, y=216, x=366
i=18, j=47, y=216, x=366
i=18, j=48, y=216, x=366
i=18, j=61, y=216, x=366
i=18, j=62, y=216, x=366
i=18, j=63, y=216, x=366
i=18, j=64, y=216, x=366
i=18, j=65, y=216, x=366
i=18, j=66, y=216, x=366
i=18, j=72, y=216, x=366
i=18, j=73, y=216, x=366
i=18, j=74, y=216, x=366
i=18, j=125, y=216, x=366
i=18, j=126, y=216, x=366
i=18, j=302, y=216, x=366
i=18, j=325, y=216, x=366
i=18, j=326, y=216, x=366
i=18, j=345, y=216, x=366
i=18, j=355, y=216, x=366
i=18, j=360, y=216, x=366
i=17, j=361, y=216, x=366
i=16, j=360, y=216, x=366
i=16, j=359, y=216, x=366
i=16, j=360, y=216, x=366
i=17, j=18, y=216, x=366
i=16, j=284, y=216, x=366
i=16, j=285, y=216, x=366
i=16, j=303, y=216, x=366
i=16, j=305, y=216, x=366
i=16, j=312, y=216, x=366
i=16, j=315, y=216, x=366
i=16, j=317, y=216, x=366
i=16, j=345, y=216, x=366
i=16, j=349, y=216, x=366
i=16, j=350, y=216, x=366
i=16, j=351, y=216, x=366
i=16, j=355, y=216, x=366
i=16, j=359, y=216, x=366
i=16, j=360, y=216, x=366
i=17, j=19, y=216, x=366
i=17, j=21, y=216, x=366
i=17, j=22, y=216, x=366
i=17, j=67, y=216, x=366
i=17, j=68, y=216, x=366
i=17, j=305, y=216, x=366
i=17, j=306, y=216, x=366
i=17, j=312, y=216, x=366
i=17, j=313, y=216, x=366
i=17, j=314, y=216, x=366
i=17, j=316, y=216, x=366
i=17, j=345, y=216, x=366
i=17, j=355, y=216, x=366
i=17, j=361, y=216, x=366
i=18, j=15, y=216, x=366
i=18, j=16, y=216, x=366
i=18, j=18, y=216, x=366
i=18, j=20, y=216, x=366
i=18, j=23, y=216, x=366
i=18, j=28, y=216, x=366
i=18, j=29, y=216, x=366
i=18, j=31, y=216, x=366
i=18, j=32, y=216, x=366
i=18, j=33, y=216, x=366
i=18, j=34, y=216, x=366
i=18, j=35, y=216, x=366
i=18, j=36, y=216, x=366
i=18, j=37, y=216, x=366
i=18, j=38, y=216, x=366
i=18, j=41, y=216, x=366
i=18, j=42, y=216, x=366
i=18, j=44, y=216, x=366
i=18, j=45, y=216, x=366
i=18, j=46, y=216, x=366
i=18, j=47, y=216, x=366
i=18, j=48, y=216, x=366
i=18, j=61, y=216, x=366
i=18, j=62, y=216, x=366
i=18, j=63, y=216, x=366
i=18, j=64, y=216, x=366
i=18, j=65, y=216, x=366
i=18, j=66, y=216, x=366
i=18, j=72, y=216, x=366
i=18, j=73, y=216, x=366
i=18, j=74, y=216, x=366
i=18, j=125, y=216, x=366
i=18, j=126, y=216, x=366
i=18, j=325, y=216, x=366
i=18, j=326, y=216, x=366
i=18, j=345, y=216, x=366
i=18, j=355, y=216, x=366
i=18, j=360, y=216, x=366
i=19, j=15, y=216, x=366
i=19, j=18, y=216, x=366
i=19, j=23, y=216, x=366
i=19, j=26, y=216, x=366
i=18, j=25, y=216, x=366
i=18, j=24, y=216, x=366
i=18, j=25, y=216, x=366
i=18, j=28, y=216, x=366
i=18, j=29, y=216, x=366
i=18, j=31, y=216, x=366
i=18, j=32, y=216, x=366
i=18, j=33, y=216, x=366
i=18, j=34, y=216, x=366
i=18, j=35, y=216, x=366
i=18, j=36, y=216, x=366
i=18, j=37, y=216, x=366
i=18, j=38, y=216, x=366
i=18, j=41, y=216, x=366
i=18, j=42, y=216, x=366
i=18, j=44, y=216, x=366
i=18, j=45, y=216, x=366
i=18, j=46, y=216, x=366
i=18, j=47, y=216, x=366
i=18, j=48, y=216, x=366
i=18, j=61, y=216, x=366
i=18, j=62, y=216, x=366
i=18, j=63, y=216, x=366
i=18, j=64, y=216, x=366
i=18, j=65, y=216, x=366
i=18, j=66, y=216, x=366
i=18, j=72, y=216, x=366
i=18, j=73, y=216, x=366
i=18, j=74, y=216, x=366
i=18, j=125, y=216, x=366
i=18, j=126, y=216, x=366
i=18, j=325, y=216, x=366
i=18, j=326, y=216, x=366
i=18, j=345, y=216, x=366
i=18, j=355, y=216, x=366
i=18, j=360, y=216, x=366
i=19, j=15, y=216, x=366
i=19, j=18, y=216, x=366
i=19, j=23, y=216, x=366
i=19, j=26, y=216, x=366
i=19, j=27, y=216, x=366
i=19, j=30, y=216, x=366
i=19, j=39, y=216, x=366
i=19, j=40, y=216, x=366
i=19, j=43, y=216, x=366
i=19, j=49, y=216, x=366
i=19, j=50, y=216, x=366
i=19, j=51, y=216, x=366
i=19, j=52, y=216, x=366
i=19, j=53, y=216, x=366
i=19, j=56, y=216, x=366
i=19, j=60, y=216, x=366
i=19, j=70, y=216, x=366
i=19, j=69, y=216, x=366
i=19, j=68, y=216, x=366
i=19, j=67, y=216, x=366
i=19, j=68, y=216, x=366
i=19, j=69, y=216, x=366
i=19, j=70, y=216, x=366
i=19, j=71, y=216, x=366
i=19, j=75, y=216, x=366
i=19, j=76, y=216, x=366
i=18, j=125, y=216, x=366
i=18, j=126, y=216, x=366
i=18, j=325, y=216, x=366
i=18, j=326, y=216, x=366
i=18, j=345, y=216, x=366
i=18, j=355, y=216, x=366
i=18, j=360, y=216, x=366
i=19, j=15, y=216, x=366
i=19, j=18, y=216, x=366
i=19, j=23, y=216, x=366
i=19, j=26, y=216, x=366
i=19, j=27, y=216, x=366
i=19, j=30, y=216, x=366
i=19, j=39, y=216, x=366
i=19, j=40, y=216, x=366
i=19, j=49, y=216, x=366
i=19, j=50, y=216, x=366
i=19, j=51, y=216, x=366
i=19, j=52, y=216, x=366
i=19, j=53, y=216, x=366
i=19, j=56, y=216, x=366
i=19, j=60, y=216, x=366
i=19, j=67, y=216, x=366
i=19, j=68, y=216, x=366
i=19, j=69, y=216, x=366
i=19, j=70, y=216, x=366
i=19, j=71, y=216, x=366
i=19, j=75, y=216, x=366
i=19, j=127, y=216, x=366
i=19, j=128, y=216, x=366
i=19, j=322, y=216, x=366
i=19, j=325, y=216, x=366
i=19, j=336, y=216, x=366
i=19, j=337, y=216, x=366
i=19, j=338, y=216, x=366
i=19, j=345, y=216, x=366
i=19, j=354, y=216, x=366
i=19, j=360, y=216, x=366
i=20, j=18, y=216, x=366
i=20, j=23, y=216, x=366
i=20, j=29, y=216, x=366
i=20, j=54, y=216, x=366
i=20, j=55, y=216, x=366
i=20, j=57, y=216, x=366
i=20, j=59, y=216, x=366
i=20, j=76, y=216, x=366
i=20, j=97, y=216, x=366
i=20, j=332, y=216, x=366
i=20, j=335, y=216, x=366
i=20, j=339, y=216, x=366
i=20, j=340, y=216, x=366
i=20, j=341, y=216, x=366
i=19, j=345, y=216, x=366
i=19, j=354, y=216, x=366
i=19, j=360, y=216, x=366
i=20, j=18, y=216, x=366
i=20, j=23, y=216, x=366
i=20, j=29, y=216, x=366
i=20, j=54, y=216, x=366
i=20, j=55, y=216, x=366
i=20, j=57, y=216, x=366
i=20, j=59, y=216, x=366
i=20, j=76, y=216, x=366
i=20, j=97, y=216, x=366
i=20, j=335, y=216, x=366
i=20, j=339, y=216, x=366
i=20, j=340, y=216, x=366
i=20, j=345, y=216, x=366
i=20, j=349, y=216, x=366
i=20, j=350, y=216, x=366
i=19, j=350, y=216, x=366
i=19, j=354, y=216, x=366
i=19, j=360, y=216, x=366
i=20, j=18, y=216, x=366
i=20, j=23, y=216, x=366
i=20, j=29, y=216, x=366
i=20, j=54, y=216, x=366
i=20, j=55, y=216, x=366
i=20, j=57, y=216, x=366
i=20, j=59, y=216, x=366
i=20, j=76, y=216, x=366
i=20, j=97, y=216, x=366
i=20, j=335, y=216, x=366
i=20, j=339, y=216, x=366
i=20, j=340, y=216, x=366
i=20, j=345, y=216, x=366
i=20, j=349, y=216, x=366
i=20, j=350, y=216, x=366
i=19, j=350, y=216, x=366
i=19, j=354, y=216, x=366
i=19, j=360, y=216, x=366
i=20, j=18, y=216, x=366
i=20, j=23, y=216, x=366
i=20, j=29, y=216, x=366
i=20, j=54, y=216, x=366
i=20, j=55, y=216, x=366
i=20, j=57, y=216, x=366
i=20, j=59, y=216, x=366
i=20, j=76, y=216, x=366
i=20, j=97, y=216, x=366
i=20, j=335, y=216, x=366
i=20, j=339, y=216, x=366
i=20, j=340, y=216, x=366
i=20, j=345, y=216, x=366
i=20, j=349, y=216, x=366
i=20, j=354, y=216, x=366
i=20, j=360, y=216, x=366
i=20, j=361, y=216, x=366
i=21, j=12, y=216, x=366
i=21, j=18, y=216, x=366
i=21, j=23, y=216, x=366
i=21, j=29, y=216, x=366
i=21, j=57, y=216, x=366
i=20, j=57, y=216, x=366
i=20, j=59, y=216, x=366
i=20, j=76, y=216, x=366
i=20, j=97, y=216, x=366
i=20, j=335, y=216, x=366
i=20, j=339, y=216, x=366
i=20, j=340, y=216, x=366
i=20, j=345, y=216, x=366
i=20, j=349, y=216, x=366
i=20, j=354, y=216, x=366
i=20, j=360, y=216, x=366
i=20, j=361, y=216, x=366
i=21, j=18, y=216, x=366
i=21, j=23, y=216, x=366
i=21, j=29, y=216, x=366
i=21, j=58, y=216, x=366
i=21, j=69, y=216, x=366
i=20, j=69, y=216, x=366
i=20, j=76, y=216, x=366
i=20, j=97, y=216, x=366
i=20, j=335, y=216, x=366
i=20, j=339, y=216, x=366
i=20, j=340, y=216, x=366
i=20, j=345, y=216, x=366
i=20, j=349, y=216, x=366
i=20, j=354, y=216, x=366
i=20, j=360, y=216, x=366
i=20, j=361, y=216, x=366
i=21, j=18, y=216, x=366
i=21, j=23, y=216, x=366
i=21, j=29, y=216, x=366
i=21, j=58, y=216, x=366
i=21, j=69, y=216, x=366
i=21, j=76, y=216, x=366
i=21, j=96, y=216, x=366
i=21, j=97, y=216, x=366
i=21, j=100, y=216, x=366
i=21, j=327, y=216, x=366
i=21, j=335, y=216, x=366
i=21, j=341, y=216, x=366
i=21, j=342, y=216, x=366
i=21, j=343, y=216, x=366
i=21, j=344, y=216, x=366
i=21, j=345, y=216, x=366
i=20, j=345, y=216, x=366
i=20, j=349, y=216, x=366
i=20, j=354, y=216, x=366
i=20, j=360, y=216, x=366
i=20, j=361, y=216, x=366
i=21, j=18, y=216, x=366
i=21, j=23, y=216, x=366
i=21, j=29, y=216, x=366
i=21, j=58, y=216, x=366
i=21, j=69, y=216, x=366
i=21, j=76, y=216, x=366
i=21, j=96, y=216, x=366
i=21, j=97, y=216, x=366
i=21, j=335, y=216, x=366
i=21, j=341, y=216, x=366
i=21, j=342, y=216, x=366
i=21, j=343, y=216, x=366
i=21, j=344, y=216, x=366
i=21, j=346, y=216, x=366
i=21, j=348, y=216, x=366
i=22, j=18, y=216, x=366
i=22, j=23, y=216, x=366
i=22, j=26, y=216, x=366
i=22, j=27, y=216, x=366
i=22, j=29, y=216, x=366
i=22, j=36, y=216, x=366
i=22, j=45, y=216, x=366
i=22, j=50, y=216, x=366
i=22, j=57, y=216, x=366
i=22, j=69, y=216, x=366
i=22, j=75, y=216, x=366
i=22, j=82, y=216, x=366
i=22, j=115, y=216, x=366
i=22, j=170, y=216, x=366
i=22, j=303, y=216, x=366
i=22, j=312, y=216, x=366
i=22, j=335, y=216, x=366
i=22, j=346, y=216, x=366
i=21, j=346, y=216, x=366
i=21, j=348, y=216, x=366
i=22, j=18, y=216, x=366
i=22, j=23, y=216, x=366
i=22, j=26, y=216, x=366
i=22, j=27, y=216, x=366
i=22, j=29, y=216, x=366
i=22, j=57, y=216, x=366
i=22, j=69, y=216, x=366
i=22, j=75, y=216, x=366
i=22, j=82, y=216, x=366
i=22, j=115, y=216, x=366
i=22, j=170, y=216, x=366
i=22, j=335, y=216, x=366
i=22, j=347, y=216, x=366
i=22, j=350, y=216, x=366
i=22, j=351, y=216, x=366
i=21, j=352, y=216, x=366
i=21, j=353, y=216, x=366
i=22, j=18, y=216, x=366
i=22, j=23, y=216, x=366
i=22, j=26, y=216, x=366
i=22, j=27, y=216, x=366
i=22, j=29, y=216, x=366
i=22, j=57, y=216, x=366
i=22, j=69, y=216, x=366
i=22, j=75, y=216, x=366
i=22, j=82, y=216, x=366
i=22, j=115, y=216, x=366
i=22, j=170, y=216, x=366
i=22, j=335, y=216, x=366
i=22, j=350, y=216, x=366
i=22, j=351, y=216, x=366
i=22, j=355, y=216, x=366
i=22, j=356, y=216, x=366
i=23, j=11, y=216, x=366
i=23, j=12, y=216, x=366
i=23, j=16, y=216, x=366
i=23, j=18, y=216, x=366
i=23, j=20, y=216, x=366
i=22, j=23, y=216, x=366
i=22, j=26, y=216, x=366
i=22, j=27, y=216, x=366
i=22, j=29, y=216, x=366
i=22, j=57, y=216, x=366
i=22, j=69, y=216, x=366
i=22, j=75, y=216, x=366
i=22, j=82, y=216, x=366
i=22, j=115, y=216, x=366
i=22, j=170, y=216, x=366
i=22, j=335, y=216, x=366
i=22, j=350, y=216, x=366
i=22, j=351, y=216, x=366
i=22, j=355, y=216, x=366
i=22, j=356, y=216, x=366
i=23, j=11, y=216, x=366
i=23, j=12, y=216, x=366
i=23, j=18, y=216, x=366
i=23, j=21, y=216, x=366
i=23, j=22, y=216, x=366
i=23, j=24, y=216, x=366
i=23, j=25, y=216, x=366
i=23, j=28, y=216, x=366
i=23, j=29, y=216, x=366
i=22, j=29, y=216, x=366
i=22, j=57, y=216, x=366
i=22, j=69, y=216, x=366
i=22, j=75, y=216, x=366
i=22, j=82, y=216, x=366
i=22, j=115, y=216, x=366
i=22, j=170, y=216, x=366
i=22, j=335, y=216, x=366
i=22, j=350, y=216, x=366
i=22, j=351, y=216, x=366
i=22, j=355, y=216, x=366
i=22, j=356, y=216, x=366
i=23, j=11, y=216, x=366
i=23, j=12, y=216, x=366
i=23, j=18, y=216, x=366
i=23, j=21, y=216, x=366
i=23, j=22, y=216, x=366
i=23, j=24, y=216, x=366
i=23, j=25, y=216, x=366
i=23, j=28, y=216, x=366
i=23, j=57, y=216, x=366
i=23, j=69, y=216, x=366
i=23, j=68, y=216, x=366
i=23, j=69, y=216, x=366
i=23, j=75, y=216, x=366
i=23, j=83, y=216, x=366
i=23, j=94, y=216, x=366
i=23, j=95, y=216, x=366
i=23, j=109, y=216, x=366
i=23, j=110, y=216, x=366
i=23, j=114, y=216, x=366
i=23, j=115, y=216, x=366
i=23, j=169, y=216, x=366
i=23, j=170, y=216, x=366
i=23, j=314, y=216, x=366
i=23, j=315, y=216, x=366
i=23, j=322, y=216, x=366
i=23, j=324, y=216, x=366
i=22, j=335, y=216, x=366
i=22, j=350, y=216, x=366
i=22, j=351, y=216, x=366
i=22, j=355, y=216, x=366
i=22, j=356, y=216, x=366
i=23, j=11, y=216, x=366
i=23, j=12, y=216, x=366
i=23, j=18, y=216, x=366
i=23, j=21, y=216, x=366
i=23, j=22, y=216, x=366
i=23, j=24, y=216, x=366
i=23, j=25, y=216, x=366
i=23, j=28, y=216, x=366
i=23, j=57, y=216, x=366
i=23, j=68, y=216, x=366
i=23, j=69, y=216, x=366
i=23, j=75, y=216, x=366
i=23, j=83, y=216, x=366
i=23, j=94, y=216, x=366
i=23, j=95, y=216, x=366
i=23, j=109, y=216, x=366
i=23, j=110, y=216, x=366
i=23, j=114, y=216, x=366
i=23, j=115, y=216, x=366
i=23, j=169, y=216, x=366
i=23, j=170, y=216, x=366
i=23, j=314, y=216, x=366
i=23, j=315, y=216, x=366
i=23, j=325, y=216, x=366
i=23, j=334, y=216, x=366
i=23, j=335, y=216, x=366
i=23, j=349, y=216, x=366
i=23, j=355, y=216, x=366
i=23, j=358, y=216, x=366
i=23, j=359, y=216, x=366
i=24, j=12, y=216, x=366
i=24, j=19, y=216, x=366
i=24, j=20, y=216, x=366
i=24, j=29, y=216, x=366
i=24, j=37, y=216, x=366
i=23, j=37, y=216, x=366
i=23, j=57, y=216, x=366
i=23, j=68, y=216, x=366
[...]
i=200, j=243, y=216, x=366
i=200, j=244, y=216, x=366
i=200, j=245, y=216, x=366
i=200, j=246, y=216, x=366
i=200, j=247, y=216, x=366
i=200, j=248, y=216, x=366
i=200, j=249, y=216, x=366
i=200, j=250, y=216, x=366
i=200, j=262, y=216, x=366
i=200, j=269, y=216, x=366
i=200, j=270, y=216, x=366
i=200, j=271, y=216, x=366
i=200, j=272, y=216, x=366
i=200, j=281, y=216, x=366
i=200, j=293, y=216, x=366
i=200, j=294, y=216, x=366
i=200, j=295, y=216, x=366
i=200, j=296, y=216, x=366
i=200, j=297, y=216, x=366
i=200, j=298, y=216, x=366
i=200, j=299, y=216, x=366
i=200, j=300, y=216, x=366
i=200, j=342, y=216, x=366
i=200, j=345, y=216, x=366
i=200, j=346, y=216, x=366
i=201, j=55, y=216, x=366
i=201, j=60, y=216, x=366
i=201, j=69, y=216, x=366
i=201, j=251, y=216, x=366
i=201, j=252, y=216, x=366
i=201, j=253, y=216, x=366
i=201, j=254, y=216, x=366
i=201, j=255, y=216, x=366
i=201, j=256, y=216, x=366
i=201, j=257, y=216, x=366
i=201, j=258, y=216, x=366
i=201, j=259, y=216, x=366
i=201, j=260, y=216, x=366
i=201, j=261, y=216, x=366
i=201, j=262, y=216, x=366
i=200, j=262, y=216, x=366
i=200, j=269, y=216, x=366
i=200, j=270, y=216, x=366
i=200, j=271, y=216, x=366
i=200, j=272, y=216, x=366
i=200, j=281, y=216, x=366
i=200, j=293, y=216, x=366
i=200, j=294, y=216, x=366
i=200, j=295, y=216, x=366
i=200, j=296, y=216, x=366
i=200, j=297, y=216, x=366
i=200, j=298, y=216, x=366
i=200, j=299, y=216, x=366
i=200, j=300, y=216, x=366
i=200, j=342, y=216, x=366
i=200, j=345, y=216, x=366
i=200, j=346, y=216, x=366
i=201, j=60, y=216, x=366
i=201, j=69, y=216, x=366
i=201, j=251, y=216, x=366
i=201, j=252, y=216, x=366
i=201, j=253, y=216, x=366
i=201, j=254, y=216, x=366
i=201, j=255, y=216, x=366
i=201, j=256, y=216, x=366
i=201, j=257, y=216, x=366
i=201, j=258, y=216, x=366
i=201, j=259, y=216, x=366
i=201, j=260, y=216, x=366
i=201, j=261, y=216, x=366
i=201, j=263, y=216, x=366
i=201, j=264, y=216, x=366
i=201, j=265, y=216, x=366
i=201, j=266, y=216, x=366
i=201, j=267, y=216, x=366
i=201, j=268, y=216, x=366
i=201, j=281, y=216, x=366
i=201, j=301, y=216, x=366
i=201, j=302, y=216, x=366
i=201, j=303, y=216, x=366
i=201, j=304, y=216, x=366
i=201, j=305, y=216, x=366
i=201, j=306, y=216, x=366
i=201, j=307, y=216, x=366
i=201, j=308, y=216, x=366
i=201, j=309, y=216, x=366
i=201, j=310, y=216, x=366
i=201, j=311, y=216, x=366
i=200, j=342, y=216, x=366
i=200, j=345, y=216, x=366
i=200, j=346, y=216, x=366
i=201, j=60, y=216, x=366
i=201, j=69, y=216, x=366
i=201, j=251, y=216, x=366
i=201, j=252, y=216, x=366
i=201, j=253, y=216, x=366
i=201, j=254, y=216, x=366
i=201, j=255, y=216, x=366
i=201, j=256, y=216, x=366
i=201, j=257, y=216, x=366
i=201, j=258, y=216, x=366
i=201, j=259, y=216, x=366
i=201, j=260, y=216, x=366
i=201, j=261, y=216, x=366
i=201, j=263, y=216, x=366
i=201, j=264, y=216, x=366
i=201, j=265, y=216, x=366
i=201, j=266, y=216, x=366
i=201, j=267, y=216, x=366
i=201, j=268, y=216, x=366
i=201, j=281, y=216, x=366
i=201, j=301, y=216, x=366
i=201, j=302, y=216, x=366
i=201, j=303, y=216, x=366
i=201, j=304, y=216, x=366
i=201, j=305, y=216, x=366
i=201, j=306, y=216, x=366
i=201, j=307, y=216, x=366
i=201, j=308, y=216, x=366
i=201, j=309, y=216, x=366
i=201, j=310, y=216, x=366
i=201, j=342, y=216, x=366
i=202, j=6, y=216, x=366
i=202, j=60, y=216, x=366
i=202, j=69, y=216, x=366
i=202, j=281, y=216, x=366
i=202, j=311, y=216, x=366
i=202, j=312, y=216, x=366
i=202, j=313, y=216, x=366
i=202, j=314, y=216, x=366
i=202, j=315, y=216, x=366
i=202, j=316, y=216, x=366
i=202, j=317, y=216, x=366
i=202, j=318, y=216, x=366
i=202, j=319, y=216, x=366
i=202, j=320, y=216, x=366
i=202, j=321, y=216, x=366
i=202, j=322, y=216, x=366
i=202, j=323, y=216, x=366
i=202, j=324, y=216, x=366
i=202, j=325, y=216, x=366
i=202, j=326, y=216, x=366
i=202, j=327, y=216, x=366
i=202, j=328, y=216, x=366
i=202, j=329, y=216, x=366
i=202, j=330, y=216, x=366
i=202, j=331, y=216, x=366
i=202, j=332, y=216, x=366
i=202, j=333, y=216, x=366
i=202, j=334, y=216, x=366
i=202, j=335, y=216, x=366
i=202, j=336, y=216, x=366
i=202, j=337, y=216, x=366
i=202, j=338, y=216, x=366
i=202, j=339, y=216, x=366
i=202, j=340, y=216, x=366
i=202, j=341, y=216, x=366
i=202, j=347, y=216, x=366
i=202, j=350, y=216, x=366
i=202, j=349, y=216, x=366
i=202, j=348, y=216, x=366
i=202, j=347, y=216, x=366
i=202, j=348, y=216, x=366
i=202, j=349, y=216, x=366
i=202, j=350, y=216, x=366
i=202, j=351, y=216, x=366
i=202, j=352, y=216, x=366
i=202, j=353, y=216, x=366
i=202, j=354, y=216, x=366
i=202, j=355, y=216, x=366
i=202, j=356, y=216, x=366
i=202, j=357, y=216, x=366
i=202, j=358, y=216, x=366
i=202, j=359, y=216, x=366
i=202, j=360, y=216, x=366
i=203, j=6, y=216, x=366
i=203, j=7, y=216, x=366
i=203, j=56, y=216, x=366
i=202, j=60, y=216, x=366
i=202, j=69, y=216, x=366
i=202, j=281, y=216, x=366
i=202, j=311, y=216, x=366
i=202, j=312, y=216, x=366
i=202, j=313, y=216, x=366
i=202, j=314, y=216, x=366
i=202, j=315, y=216, x=366
i=202, j=316, y=216, x=366
i=202, j=317, y=216, x=366
i=202, j=318, y=216, x=366
i=202, j=319, y=216, x=366
i=202, j=320, y=216, x=366
i=202, j=321, y=216, x=366
i=202, j=322, y=216, x=366
i=202, j=323, y=216, x=366
i=202, j=324, y=216, x=366
i=202, j=325, y=216, x=366
i=202, j=326, y=216, x=366
i=202, j=327, y=216, x=366
i=202, j=328, y=216, x=366
i=202, j=329, y=216, x=366
i=202, j=330, y=216, x=366
i=202, j=331, y=216, x=366
i=202, j=332, y=216, x=366
i=202, j=333, y=216, x=366
i=202, j=334, y=216, x=366
i=202, j=335, y=216, x=366
i=202, j=336, y=216, x=366
i=202, j=337, y=216, x=366
i=202, j=338, y=216, x=366
i=202, j=339, y=216, x=366
i=202, j=340, y=216, x=366
i=202, j=341, y=216, x=366
i=202, j=347, y=216, x=366
i=202, j=348, y=216, x=366
i=202, j=349, y=216, x=366
i=202, j=350, y=216, x=366
i=202, j=351, y=216, x=366
i=202, j=352, y=216, x=366
i=202, j=353, y=216, x=366
i=202, j=354, y=216, x=366
i=202, j=355, y=216, x=366
i=202, j=356, y=216, x=366
i=202, j=357, y=216, x=366
i=202, j=358, y=216, x=366
i=202, j=359, y=216, x=366
i=202, j=360, y=216, x=366
i=203, j=6, y=216, x=366
i=203, j=7, y=216, x=366
i=203, j=57, y=216, x=366
i=203, j=58, y=216, x=366
i=203, j=59, y=216, x=366
i=203, j=60, y=216, x=366
i=202, j=60, y=216, x=366
i=202, j=69, y=216, x=366
i=202, j=281, y=216, x=366
i=202, j=311, y=216, x=366
i=202, j=312, y=216, x=366
i=202, j=313, y=216, x=366
i=202, j=314, y=216, x=366
i=202, j=315, y=216, x=366
i=202, j=316, y=216, x=366
i=202, j=317, y=216, x=366
i=202, j=318, y=216, x=366
i=202, j=319, y=216, x=366
i=202, j=320, y=216, x=366
i=202, j=321, y=216, x=366
i=202, j=322, y=216, x=366
i=202, j=323, y=216, x=366
i=202, j=324, y=216, x=366
i=202, j=325, y=216, x=366
i=202, j=326, y=216, x=366
i=202, j=327, y=216, x=366
i=202, j=328, y=216, x=366
i=202, j=329, y=216, x=366
i=202, j=330, y=216, x=366
i=202, j=331, y=216, x=366
i=202, j=332, y=216, x=366
i=202, j=333, y=216, x=366
i=202, j=334, y=216, x=366
i=202, j=335, y=216, x=366
i=202, j=336, y=216, x=366
i=202, j=337, y=216, x=366
i=202, j=338, y=216, x=366
i=202, j=339, y=216, x=366
i=202, j=340, y=216, x=366
i=202, j=341, y=216, x=366
i=202, j=347, y=216, x=366
i=202, j=348, y=216, x=366
i=202, j=349, y=216, x=366
i=202, j=350, y=216, x=366
i=202, j=351, y=216, x=366
i=202, j=352, y=216, x=366
i=202, j=353, y=216, x=366
i=202, j=354, y=216, x=366
i=202, j=355, y=216, x=366
i=202, j=356, y=216, x=366
i=202, j=357, y=216, x=366
i=202, j=358, y=216, x=366
i=202, j=359, y=216, x=366
i=202, j=360, y=216, x=366
i=203, j=6, y=216, x=366
i=203, j=7, y=216, x=366
i=203, j=57, y=216, x=366
i=203, j=58, y=216, x=366
i=203, j=59, y=216, x=366
i=203, j=61, y=216, x=366
i=203, j=67, y=216, x=366
i=203, j=66, y=216, x=366
i=203, j=67, y=216, x=366
i=203, j=68, y=216, x=366
i=203, j=69, y=216, x=366
i=203, j=281, y=216, x=366
i=203, j=282, y=216, x=366
i=203, j=345, y=216, x=366
i=203, j=361, y=216, x=366
i=204, j=56, y=216, x=366
i=204, j=62, y=216, x=366
i=204, j=63, y=216, x=366
i=204, j=64, y=216, x=366
i=204, j=65, y=216, x=366
i=204, j=140, y=216, x=366
i=204, j=168, y=216, x=366
i=204, j=169, y=216, x=366
i=204, j=279, y=216, x=366
i=204, j=347, y=216, x=366
i=204, j=359, y=216, x=366
i=204, j=360, y=216, x=366
i=205, j=8, y=216, x=366
i=204, j=9, y=216, x=366
i=204, j=10, y=216, x=366
i=204, j=56, y=216, x=366
i=204, j=62, y=216, x=366
i=204, j=63, y=216, x=366
i=204, j=64, y=216, x=366
i=204, j=65, y=216, x=366
i=204, j=140, y=216, x=366
i=204, j=168, y=216, x=366
i=203, j=281, y=216, x=366
i=203, j=282, y=216, x=366
i=203, j=361, y=216, x=366
i=204, j=9, y=216, x=366
i=204, j=10, y=216, x=366
i=204, j=56, y=216, x=366
i=204, j=62, y=216, x=366
i=204, j=63, y=216, x=366
i=204, j=64, y=216, x=366
i=204, j=65, y=216, x=366
i=204, j=140, y=216, x=366
i=204, j=169, y=216, x=366
i=204, j=359, y=216, x=366
i=204, j=360, y=216, x=366
i=205, j=8, y=216, x=366
i=205, j=11, y=216, x=366
i=205, j=12, y=216, x=366
i=205, j=13, y=216, x=366
i=205, j=54, y=216, x=366
i=204, j=56, y=216, x=366
i=204, j=62, y=216, x=366
i=204, j=63, y=216, x=366
i=204, j=64, y=216, x=366
i=204, j=65, y=216, x=366
i=204, j=140, y=216, x=366
i=204, j=169, y=216, x=366
i=204, j=359, y=216, x=366
i=204, j=360, y=216, x=366
i=205, j=8, y=216, x=366
i=205, j=11, y=216, x=366
i=205, j=12, y=216, x=366
i=205, j=13, y=216, x=366
i=205, j=55, y=216, x=366
i=205, j=136, y=216, x=366
i=205, j=139, y=216, x=366
i=205, j=141, y=216, x=366
i=205, j=142, y=216, x=366
i=205, j=143, y=216, x=366
i=205, j=165, y=216, x=366
i=205, j=168, y=216, x=366
i=205, j=170, y=216, x=366
i=205, j=171, y=216, x=366
i=205, j=335, y=216, x=366
i=204, j=335, y=216, x=366
i=203, j=335, y=216, x=366
i=203, j=361, y=216, x=366
i=204, j=9, y=216, x=366
i=204, j=10, y=216, x=366
i=204, j=56, y=216, x=366
i=204, j=62, y=216, x=366
i=204, j=63, y=216, x=366
i=204, j=64, y=216, x=366
i=204, j=65, y=216, x=366
i=204, j=140, y=216, x=366
i=204, j=169, y=216, x=366
i=204, j=335, y=216, x=366
i=204, j=359, y=216, x=366
i=204, j=360, y=216, x=366
i=205, j=8, y=216, x=366
i=205, j=11, y=216, x=366
i=205, j=12, y=216, x=366
i=205, j=13, y=216, x=366
i=205, j=55, y=216, x=366
i=205, j=139, y=216, x=366
i=205, j=141, y=216, x=366
i=205, j=142, y=216, x=366
i=205, j=143, y=216, x=366
i=205, j=168, y=216, x=366
i=205, j=170, y=216, x=366
i=205, j=171, y=216, x=366
i=204, j=335, y=216, x=366
i=204, j=359, y=216, x=366
i=204, j=360, y=216, x=366
i=205, j=8, y=216, x=366
i=205, j=11, y=216, x=366
i=205, j=12, y=216, x=366
i=205, j=13, y=216, x=366
i=205, j=55, y=216, x=366
i=205, j=139, y=216, x=366
i=205, j=141, y=216, x=366
i=205, j=142, y=216, x=366
i=205, j=143, y=216, x=366
i=205, j=168, y=216, x=366
i=205, j=170, y=216, x=366
i=205, j=335, y=216, x=366
i=205, j=345, y=216, x=366
i=205, j=357, y=216, x=366
i=204, j=359, y=216, x=366
i=204, j=360, y=216, x=366
i=205, j=8, y=216, x=366
i=205, j=11, y=216, x=366
i=205, j=12, y=216, x=366
i=205, j=13, y=216, x=366
i=205, j=55, y=216, x=366
i=205, j=139, y=216, x=366
i=205, j=141, y=216, x=366
i=205, j=142, y=216, x=366
i=205, j=143, y=216, x=366
i=205, j=168, y=216, x=366
i=205, j=170, y=216, x=366
i=205, j=335, y=216, x=366
i=205, j=358, y=216, x=366
i=206, j=9, y=216, x=366
i=206, j=13, y=216, x=366
i=206, j=51, y=216, x=366
i=206, j=52, y=216, x=366
i=206, j=53, y=216, x=366
i=206, j=54, y=216, x=366
i=206, j=139, y=216, x=366
i=206, j=168, y=216, x=366
i=206, j=171, y=216, x=366
i=206, j=275, y=216, x=366
i=206, j=289, y=216, x=366
i=206, j=336, y=216, x=366
i=206, j=353, y=216, x=366
i=206, j=354, y=216, x=366
i=206, j=355, y=216, x=366
i=206, j=356, y=216, x=366
i=206, j=357, y=216, x=366
i=207, j=10, y=216, x=366
i=207, j=51, y=216, x=366
i=207, j=138, y=216, x=366
i=207, j=167, y=216, x=366
i=207, j=170, y=216, x=366
i=207, j=337, y=216, x=366
i=207, j=338, y=216, x=366
i=207, j=339, y=216, x=366
i=207, j=340, y=216, x=366
i=207, j=341, y=216, x=366
i=207, j=351, y=216, x=366
i=207, j=352, y=216, x=366
i=208, j=11, y=216, x=366
i=208, j=12, y=216, x=366
i=208, j=15, y=216, x=366
i=208, j=16, y=216, x=366
i=208, j=17, y=216, x=366
i=208, j=51, y=216, x=366
i=208, j=138, y=216, x=366
i=208, j=166, y=216, x=366
i=208, j=169, y=216, x=366
i=208, j=342, y=216, x=366
i=208, j=343, y=216, x=366
i=208, j=344, y=216, x=366
i=208, j=349, y=216, x=366
i=207, j=351, y=216, x=366
i=207, j=352, y=216, x=366
i=208, j=11, y=216, x=366
i=208, j=12, y=216, x=366
i=208, j=15, y=216, x=366
i=208, j=16, y=216, x=366
i=208, j=17, y=216, x=366
i=208, j=51, y=216, x=366
i=208, j=138, y=216, x=366
i=208, j=166, y=216, x=366
i=208, j=169, y=216, x=366
i=208, j=342, y=216, x=366
i=208, j=343, y=216, x=366
i=208, j=344, y=216, x=366
i=208, j=350, y=216, x=366
i=209, j=10, y=216, x=366
i=209, j=13, y=216, x=366
i=209, j=14, y=216, x=366
i=209, j=17, y=216, x=366
i=209, j=23, y=216, x=366
i=209, j=24, y=216, x=366
i=208, j=51, y=216, x=366
i=208, j=138, y=216, x=366
i=208, j=166, y=216, x=366
i=208, j=169, y=216, x=366
i=208, j=342, y=216, x=366
i=208, j=343, y=216, x=366
i=208, j=344, y=216, x=366
i=208, j=350, y=216, x=366
i=209, j=10, y=216, x=366
i=209, j=13, y=216, x=366
i=209, j=14, y=216, x=366
i=209, j=17, y=216, x=366
i=209, j=23, y=216, x=366
i=209, j=22, y=216, x=366
i=209, j=23, y=216, x=366
i=209, j=25, y=216, x=366
i=208, j=24, y=216, x=366
i=208, j=51, y=216, x=366
i=208, j=138, y=216, x=366
i=208, j=166, y=216, x=366
i=208, j=169, y=216, x=366
i=208, j=342, y=216, x=366
i=208, j=343, y=216, x=366
i=208, j=344, y=216, x=366
i=208, j=350, y=216, x=366
i=209, j=10, y=216, x=366
i=209, j=13, y=216, x=366
i=209, j=14, y=216, x=366
i=209, j=17, y=216, x=366
i=209, j=22, y=216, x=366
i=208, j=24, y=216, x=366
i=208, j=51, y=216, x=366
i=208, j=138, y=216, x=366
i=208, j=166, y=216, x=366
i=208, j=169, y=216, x=366
i=208, j=342, y=216, x=366
i=208, j=343, y=216, x=366
i=208, j=344, y=216, x=366
i=208, j=350, y=216, x=366
i=209, j=10, y=216, x=366
i=209, j=13, y=216, x=366
i=209, j=14, y=216, x=366
i=209, j=17, y=216, x=366
i=209, j=23, y=216, x=366
i=209, j=25, y=216, x=366
i=209, j=28, y=216, x=366
i=209, j=34, y=216, x=366
i=209, j=48, y=216, x=366
i=208, j=51, y=216, x=366
i=208, j=138, y=216, x=366
i=208, j=166, y=216, x=366
i=208, j=169, y=216, x=366
i=208, j=342, y=216, x=366
i=208, j=343, y=216, x=366
i=208, j=344, y=216, x=366
i=208, j=350, y=216, x=366
i=209, j=10, y=216, x=366
i=209, j=13, y=216, x=366
i=209, j=14, y=216, x=366
i=209, j=17, y=216, x=366
i=209, j=23, y=216, x=366
i=209, j=25, y=216, x=366
i=209, j=28, y=216, x=366
i=209, j=49, y=216, x=366
i=209, j=50, y=216, x=366
i=209, j=129, y=216, x=366
i=209, j=130, y=216, x=366
i=209, j=131, y=216, x=366
i=209, j=132, y=216, x=366
i=209, j=133, y=216, x=366
i=209, j=134, y=216, x=366
i=209, j=135, y=216, x=366
i=209, j=136, y=216, x=366
i=209, j=138, y=216, x=366
i=209, j=166, y=216, x=366
i=209, j=168, y=216, x=366
i=209, j=263, y=216, x=366
i=209, j=264, y=216, x=366
i=209, j=338, y=216, x=366
i=209, j=341, y=216, x=366
i=209, j=340, y=216, x=366
i=209, j=339, y=216, x=366
i=209, j=338, y=216, x=366
i=209, j=339, y=216, x=366
i=209, j=340, y=216, x=366
i=209, j=341, y=216, x=366
i=209, j=345, y=216, x=366
i=209, j=346, y=216, x=366
i=209, j=347, y=216, x=366
i=209, j=348, y=216, x=366
i=209, j=349, y=216, x=366
i=210, j=11, y=216, x=366
i=210, j=12, y=216, x=366
i=210, j=22, y=216, x=366
i=210, j=24, y=216, x=366
i=210, j=27, y=216, x=366
i=210, j=26, y=216, x=366
i=210, j=27, y=216, x=366
i=210, j=47, y=216, x=366
i=209, j=47, y=216, x=366
i=209, j=49, y=216, x=366
i=209, j=50, y=216, x=366
i=209, j=129, y=216, x=366
i=209, j=130, y=216, x=366
i=209, j=131, y=216, x=366
i=209, j=132, y=216, x=366
i=209, j=133, y=216, x=366
i=209, j=134, y=216, x=366
i=209, j=135, y=216, x=366
i=209, j=136, y=216, x=366
i=209, j=138, y=216, x=366
i=209, j=166, y=216, x=366
i=209, j=168, y=216, x=366
i=209, j=263, y=216, x=366
i=209, j=264, y=216, x=366
i=209, j=338, y=216, x=366
i=209, j=339, y=216, x=366
i=209, j=340, y=216, x=366
i=209, j=341, y=216, x=366
i=209, j=345, y=216, x=366
i=209, j=346, y=216, x=366
i=209, j=347, y=216, x=366
i=209, j=348, y=216, x=366
i=209, j=349, y=216, x=366
i=210, j=11, y=216, x=366
i=210, j=12, y=216, x=366
i=210, j=22, y=216, x=366
i=210, j=24, y=216, x=366
i=210, j=26, y=216, x=366
i=210, j=27, y=216, x=366
i=210, j=47, y=216, x=366
i=209, j=47, y=216, x=366
i=208, j=48, y=216, x=366
i=208, j=51, y=216, x=366
i=208, j=138, y=216, x=366
i=208, j=166, y=216, x=366
i=208, j=169, y=216, x=366
i=208, j=342, y=216, x=366
i=208, j=343, y=216, x=366
i=208, j=344, y=216, x=366
i=208, j=350, y=216, x=366
i=209, j=10, y=216, x=366
i=209, j=13, y=216, x=366
i=209, j=14, y=216, x=366
i=209, j=17, y=216, x=366
i=209, j=23, y=216, x=366
i=209, j=25, y=216, x=366
i=209, j=28, y=216, x=366
i=209, j=47, y=216, x=366
i=209, j=49, y=216, x=366
i=209, j=50, y=216, x=366
i=209, j=129, y=216, x=366
i=209, j=130, y=216, x=366
i=209, j=131, y=216, x=366
i=209, j=132, y=216, x=366
i=209, j=133, y=216, x=366
i=209, j=134, y=216, x=366
i=209, j=135, y=216, x=366
i=209, j=136, y=216, x=366
i=209, j=138, y=216, x=366
i=209, j=166, y=216, x=366
i=209, j=168, y=216, x=366
i=209, j=263, y=216, x=366
i=209, j=264, y=216, x=366
i=209, j=338, y=216, x=366
i=209, j=339, y=216, x=366
i=209, j=340, y=216, x=366
i=209, j=341, y=216, x=366
i=209, j=345, y=216, x=366
i=209, j=346, y=216, x=366
i=209, j=347, y=216, x=366
i=209, j=348, y=216, x=366
i=209, j=349, y=216, x=366
i=210, j=11, y=216, x=366
i=210, j=12, y=216, x=366
i=210, j=22, y=216, x=366
i=210, j=24, y=216, x=366
i=210, j=26, y=216, x=366
i=210, j=27, y=216, x=366
i=210, j=48, y=216, x=366
i=210, j=50, y=216, x=366
i=210, j=74, y=216, x=366
i=210, j=79, y=216, x=366
i=210, j=99, y=216, x=366
i=210, j=129, y=216, x=366
i=210, j=137, y=216, x=366
i=210, j=166, y=216, x=366
i=210, j=169, y=216, x=366
i=210, j=170, y=216, x=366
i=210, j=171, y=216, x=366
i=210, j=172, y=216, x=366
i=210, j=336, y=216, x=366
i=210, j=355, y=216, x=366
i=210, j=359, y=216, x=366
i=211, j=8, y=216, x=366
i=211, j=50, y=216, x=366
i=210, j=50, y=216, x=366
i=210, j=129, y=216, x=366
i=210, j=137, y=216, x=366
i=210, j=166, y=216, x=366
i=210, j=169, y=216, x=366
i=210, j=170, y=216, x=366
i=210, j=171, y=216, x=366
i=210, j=172, y=216, x=366
i=210, j=359, y=216, x=366
i=211, j=51, y=216, x=366
i=211, j=52, y=216, x=366
i=211, j=53, y=216, x=366
i=211, j=54, y=216, x=366
i=211, j=55, y=216, x=366
i=211, j=56, y=216, x=366
i=211, j=57, y=216, x=366
i=211, j=58, y=216, x=366
i=211, j=59, y=216, x=366
i=211, j=60, y=216, x=366
i=211, j=61, y=216, x=366
i=211, j=62, y=216, x=366
i=211, j=63, y=216, x=366
i=211, j=64, y=216, x=366
i=211, j=65, y=216, x=366
i=211, j=66, y=216, x=366
i=211, j=67, y=216, x=366
i=211, j=68, y=216, x=366
i=211, j=69, y=216, x=366
i=211, j=70, y=216, x=366
i=211, j=71, y=216, x=366
i=211, j=72, y=216, x=366
i=211, j=73, y=216, x=366
i=211, j=74, y=216, x=366
i=211, j=75, y=216, x=366
i=211, j=76, y=216, x=366
i=211, j=77, y=216, x=366
i=211, j=78, y=216, x=366
i=211, j=79, y=216, x=366
i=211, j=80, y=216, x=366
i=211, j=81, y=216, x=366
i=211, j=82, y=216, x=366
i=211, j=83, y=216, x=366
i=211, j=84, y=216, x=366
i=211, j=85, y=216, x=366
i=211, j=86, y=216, x=366
i=211, j=87, y=216, x=366
i=211, j=88, y=216, x=366
i=211, j=93, y=216, x=366
i=211, j=92, y=216, x=366
i=211, j=93, y=216, x=366
i=211, j=94, y=216, x=366
i=211, j=95, y=216, x=366
i=211, j=96, y=216, x=366
i=211, j=97, y=216, x=366
i=211, j=98, y=216, x=366
i=211, j=99, y=216, x=366
i=211, j=100, y=216, x=366
i=211, j=101, y=216, x=366
i=211, j=102, y=216, x=366
i=211, j=103, y=216, x=366
i=211, j=109, y=216, x=366
i=211, j=110, y=216, x=366
i=211, j=111, y=216, x=366
i=211, j=112, y=216, x=366
i=211, j=137, y=216, x=366
i=211, j=166, y=216, x=366
i=211, j=341, y=216, x=366
i=211, j=357, y=216, x=366
i=211, j=358, y=216, x=366
i=211, j=359, y=216, x=366
edge_draw
Exiting @ tick 126245663500 because target called exit()
