Redirecting stdout to /home/majid/gem5/gem5-relax/tests/test-progs/scale/runs/sailboat-480-1-relaxed-1/sailboat-480-1-relaxed-1.out
Redirecting stderr to /home/majid/gem5/gem5-relax/tests/test-progs/scale/runs/sailboat-480-1-relaxed-1/sailboat-480-1-relaxed-1.err
gem5 Simulator System.  http://gem5.org
gem5 is copyrighted software; use the --copyright option for details.

gem5 compiled Apr 21 2014 11:01:47
gem5 started Apr 24 2014 18:28:48
gem5 executing on drg.ics.uci.edu
command line: /home/majid/gem5/gem5-relax/build/ALPHA/gem5.opt --redirect-stdout --redirect-stderr --stdout-file=/home/majid/gem5/gem5-relax/tests/test-progs/scale/runs/sailboat-480-1-relaxed-1/sailboat-480-1-relaxed-1.out --stderr-file=/home/majid/gem5/gem5-relax/tests/test-progs/scale/runs/sailboat-480-1-relaxed-1/sailboat-480-1-relaxed-1.err --outdir=/home/majid/gem5/gem5-relax/tests/test-progs/scale/runs/sailboat-480-1-relaxed-1 --debug-flags=PseudoInst /home/majid/gem5/gem5-relax/configs/example/se_relax_cache.py --cpu-type=detailed --num-cpus=1 --sys-clock=2GHz --cpu-clock=2GHz --mem-type=ddr3_1600_x64 --mem-size=512MB --caches --l2cache --num-l2caches=1 --num-l3caches=0 --l1d_size=32kB --l1i_size=32kB --l2_size=512kB --l1d_assoc=4 --l1i_assoc=4 --l2_assoc=8 --cacheline_size=64 --fast-forward=3390 --maxinsts=100000000000000 --at-instruction --replacement_policy=random --l1_voltage_parameter_file=/home/majid/gem5/gem5-relax/ber_info/gem5params-L1-A.csv --l2_voltage_parameter_file=/home/majid/gem5/gem5-relax/ber_info/gem5params-L2-A.csv --vdd3_l1=480 --vdd2_l1=1000 --vdd1_l1=1000 --vdd3_l2=1000 --vdd2_l2=1000 --vdd1_l2=1000 --init_afb_l1=1 --init_afb_l2=0 --clean_ways_l1=1 --clean_ways_l2=8 -c /home/majid/gem5/gem5-relax/tests/test-progs/scale/bin/alpha/scale -o 2 /home/majid/gem5/gem5-relax/tests/test-progs/scale/inputs/sailboat.ppm /home/majid/gem5/gem5-relax/tests/test-progs/scale/outputs/sailboat-X2-480-1-relaxed-1.ppm
Global frequency set at 1000000000000 ticks per second
info: Reading this cache's voltage parameter file...
info: Reading this cache's voltage parameter file...
info: Reading this cache's voltage parameter file...
info: Generating fault maps for this cache
info: Fault map generated
info: Dumping cache fault map for VDDs [480 mV, 1000 mV, 1000 mV]...
info: Block# = 0 ==>  0, 0, 0
info: Block# = 1 ==>  1, 0, 0
info: Block# = 2 ==>  3, 0, 0
info: Block# = 3 ==>  2, 0, 0
info: Block# = 4 ==>  0, 0, 0
info: Block# = 5 ==>  2, 0, 0
info: Block# = 6 ==>  1, 0, 0
info: Block# = 7 ==>  0, 0, 0
info: Block# = 8 ==>  0, 0, 0
info: Block# = 9 ==>  0, 0, 0
info: Block# = 10 ==>  1, 0, 0
info: Block# = 11 ==>  0, 0, 0
info: Block# = 12 ==>  0, 0, 0
info: Block# = 13 ==>  1, 0, 0
info: Block# = 14 ==>  2, 0, 0
info: Block# = 15 ==>  3, 0, 0
info: Block# = 16 ==>  0, 0, 0
info: Block# = 17 ==>  0, 0, 0
info: Block# = 18 ==>  4, 0, 0
info: Block# = 19 ==>  1, 0, 0
info: Block# = 20 ==>  0, 0, 0
info: Block# = 21 ==>  0, 0, 0
info: Block# = 22 ==>  1, 0, 0
info: Block# = 23 ==>  2, 0, 0
info: Block# = 24 ==>  0, 0, 0
info: Block# = 25 ==>  0, 0, 0
info: Block# = 26 ==>  1, 0, 0
info: Block# = 27 ==>  0, 0, 0
info: Block# = 28 ==>  0, 0, 0
info: Block# = 29 ==>  2, 0, 0
info: Block# = 30 ==>  1, 0, 0
info: Block# = 31 ==>  0, 0, 0
info: Block# = 32 ==>  0, 0, 0
info: Block# = 33 ==>  0, 0, 0
info: Block# = 34 ==>  1, 0, 0
info: Block# = 35 ==>  0, 0, 0
info: Block# = 36 ==>  0, 0, 0
info: Block# = 37 ==>  2, 0, 0
info: Block# = 38 ==>  1, 0, 0
info: Block# = 39 ==>  2, 0, 0
info: Block# = 40 ==>  0, 0, 0
info: Block# = 41 ==>  3, 0, 0
info: Block# = 42 ==>  1, 0, 0
info: Block# = 43 ==>  0, 0, 0
info: Block# = 44 ==>  0, 0, 0
info: Block# = 45 ==>  1, 0, 0
info: Block# = 46 ==>  1, 0, 0
info: Block# = 47 ==>  2, 0, 0
info: Block# = 48 ==>  0, 0, 0
info: Block# = 49 ==>  0, 0, 0
info: Block# = 50 ==>  2, 0, 0
info: Block# = 51 ==>  0, 0, 0
info: Block# = 52 ==>  0, 0, 0
info: Block# = 53 ==>  1, 0, 0
info: Block# = 54 ==>  0, 0, 0
info: Block# = 55 ==>  1, 0, 0
info: Block# = 56 ==>  0, 0, 0
info: Block# = 57 ==>  1, 0, 0
info: Block# = 58 ==>  1, 0, 0
info: Block# = 59 ==>  0, 0, 0
info: Block# = 60 ==>  0, 0, 0
info: Block# = 61 ==>  1, 0, 0
info: Block# = 62 ==>  1, 0, 0
info: Block# = 63 ==>  4, 0, 0
info: Block# = 64 ==>  0, 0, 0
info: Block# = 65 ==>  2, 0, 0
info: Block# = 66 ==>  2, 0, 0
info: Block# = 67 ==>  0, 0, 0
info: Block# = 68 ==>  0, 0, 0
info: Block# = 69 ==>  1, 0, 0
info: Block# = 70 ==>  1, 0, 0
info: Block# = 71 ==>  0, 0, 0
info: Block# = 72 ==>  0, 0, 0
info: Block# = 73 ==>  0, 0, 0
info: Block# = 74 ==>  1, 0, 0
info: Block# = 75 ==>  1, 0, 0
info: Block# = 76 ==>  0, 0, 0
info: Block# = 77 ==>  4, 0, 0
info: Block# = 78 ==>  1, 0, 0
info: Block# = 79 ==>  3, 0, 0
info: Block# = 80 ==>  0, 0, 0
info: Block# = 81 ==>  1, 0, 0
info: Block# = 82 ==>  1, 0, 0
info: Block# = 83 ==>  5, 0, 0
info: Block# = 84 ==>  0, 0, 0
info: Block# = 85 ==>  2, 0, 0
info: Block# = 86 ==>  1, 0, 0
info: Block# = 87 ==>  0, 0, 0
info: Block# = 88 ==>  0, 0, 0
info: Block# = 89 ==>  2, 0, 0
info: Block# = 90 ==>  2, 0, 0
info: Block# = 91 ==>  2, 0, 0
info: Block# = 92 ==>  0, 0, 0
info: Block# = 93 ==>  2, 0, 0
info: Block# = 94 ==>  1, 0, 0
info: Block# = 95 ==>  1, 0, 0
info: Block# = 96 ==>  0, 0, 0
info: Block# = 97 ==>  1, 0, 0
info: Block# = 98 ==>  1, 0, 0
info: Block# = 99 ==>  2, 0, 0
info: Block# = 100 ==>  0, 0, 0
info: Block# = 101 ==>  3, 0, 0
info: Block# = 102 ==>  1, 0, 0
info: Block# = 103 ==>  0, 0, 0
info: Block# = 104 ==>  0, 0, 0
info: Block# = 105 ==>  0, 0, 0
info: Block# = 106 ==>  2, 0, 0
info: Block# = 107 ==>  1, 0, 0
info: Block# = 108 ==>  0, 0, 0
info: Block# = 109 ==>  1, 0, 0
info: Block# = 110 ==>  1, 0, 0
info: Block# = 111 ==>  0, 0, 0
info: Block# = 112 ==>  0, 0, 0
info: Block# = 113 ==>  0, 0, 0
info: Block# = 114 ==>  1, 0, 0
info: Block# = 115 ==>  3, 0, 0
info: Block# = 116 ==>  0, 0, 0
info: Block# = 117 ==>  0, 0, 0
info: Block# = 118 ==>  1, 0, 0
info: Block# = 119 ==>  1, 0, 0
info: Block# = 120 ==>  0, 0, 0
info: Block# = 121 ==>  2, 0, 0
info: Block# = 122 ==>  2, 0, 0
info: Block# = 123 ==>  4, 0, 0
info: Block# = 124 ==>  0, 0, 0
info: Block# = 125 ==>  3, 0, 0
info: Block# = 126 ==>  2, 0, 0
info: Block# = 127 ==>  3, 0, 0
info: Block# = 128 ==>  0, 0, 0
info: Block# = 129 ==>  3, 0, 0
info: Block# = 130 ==>  1, 0, 0
info: Block# = 131 ==>  2, 0, 0
info: Block# = 132 ==>  0, 0, 0
info: Block# = 133 ==>  5, 0, 0
info: Block# = 134 ==>  1, 0, 0
info: Block# = 135 ==>  0, 0, 0
info: Block# = 136 ==>  0, 0, 0
info: Block# = 137 ==>  2, 0, 0
info: Block# = 138 ==>  1, 0, 0
info: Block# = 139 ==>  1, 0, 0
info: Block# = 140 ==>  0, 0, 0
info: Block# = 141 ==>  2, 0, 0
info: Block# = 142 ==>  2, 0, 0
info: Block# = 143 ==>  0, 0, 0
info: Block# = 144 ==>  0, 0, 0
info: Block# = 145 ==>  1, 0, 0
info: Block# = 146 ==>  0, 0, 0
info: Block# = 147 ==>  0, 0, 0
info: Block# = 148 ==>  0, 0, 0
info: Block# = 149 ==>  5, 0, 0
info: Block# = 150 ==>  2, 0, 0
info: Block# = 151 ==>  1, 0, 0
info: Block# = 152 ==>  0, 0, 0
info: Block# = 153 ==>  0, 0, 0
info: Block# = 154 ==>  2, 0, 0
info: Block# = 155 ==>  0, 0, 0
info: Block# = 156 ==>  0, 0, 0
info: Block# = 157 ==>  1, 0, 0
info: Block# = 158 ==>  2, 0, 0
info: Block# = 159 ==>  2, 0, 0
info: Block# = 160 ==>  0, 0, 0
info: Block# = 161 ==>  0, 0, 0
info: Block# = 162 ==>  3, 0, 0
info: Block# = 163 ==>  0, 0, 0
info: Block# = 164 ==>  0, 0, 0
info: Block# = 165 ==>  0, 0, 0
info: Block# = 166 ==>  2, 0, 0
info: Block# = 167 ==>  2, 0, 0
info: Block# = 168 ==>  0, 0, 0
info: Block# = 169 ==>  4, 0, 0
info: Block# = 170 ==>  3, 0, 0
info: Block# = 171 ==>  2, 0, 0
info: Block# = 172 ==>  0, 0, 0
info: Block# = 173 ==>  4, 0, 0
info: Block# = 174 ==>  0, 0, 0
info: Block# = 175 ==>  2, 0, 0
info: Block# = 176 ==>  0, 0, 0
info: Block# = 177 ==>  1, 0, 0
info: Block# = 178 ==>  0, 0, 0
info: Block# = 179 ==>  2, 0, 0
info: Block# = 180 ==>  0, 0, 0
info: Block# = 181 ==>  1, 0, 0
info: Block# = 182 ==>  0, 0, 0
info: Block# = 183 ==>  2, 0, 0
info: Block# = 184 ==>  0, 0, 0
info: Block# = 185 ==>  2, 0, 0
info: Block# = 186 ==>  0, 0, 0
info: Block# = 187 ==>  2, 0, 0
info: Block# = 188 ==>  0, 0, 0
info: Block# = 189 ==>  0, 0, 0
info: Block# = 190 ==>  1, 0, 0
info: Block# = 191 ==>  2, 0, 0
info: Block# = 192 ==>  0, 0, 0
info: Block# = 193 ==>  1, 0, 0
info: Block# = 194 ==>  3, 0, 0
info: Block# = 195 ==>  4, 0, 0
info: Block# = 196 ==>  0, 0, 0
info: Block# = 197 ==>  4, 0, 0
info: Block# = 198 ==>  1, 0, 0
info: Block# = 199 ==>  2, 0, 0
info: Block# = 200 ==>  0, 0, 0
info: Block# = 201 ==>  1, 0, 0
info: Block# = 202 ==>  3, 0, 0
info: Block# = 203 ==>  2, 0, 0
info: Block# = 204 ==>  0, 0, 0
info: Block# = 205 ==>  3, 0, 0
info: Block# = 206 ==>  2, 0, 0
info: Block# = 207 ==>  1, 0, 0
info: Block# = 208 ==>  0, 0, 0
info: Block# = 209 ==>  0, 0, 0
info: Block# = 210 ==>  0, 0, 0
info: Block# = 211 ==>  1, 0, 0
info: Block# = 212 ==>  0, 0, 0
info: Block# = 213 ==>  1, 0, 0
info: Block# = 214 ==>  1, 0, 0
info: Block# = 215 ==>  0, 0, 0
info: Block# = 216 ==>  0, 0, 0
info: Block# = 217 ==>  0, 0, 0
info: Block# = 218 ==>  1, 0, 0
info: Block# = 219 ==>  2, 0, 0
info: Block# = 220 ==>  0, 0, 0
info: Block# = 221 ==>  0, 0, 0
info: Block# = 222 ==>  1, 0, 0
info: Block# = 223 ==>  1, 0, 0
info: Block# = 224 ==>  0, 0, 0
info: Block# = 225 ==>  2, 0, 0
info: Block# = 226 ==>  2, 0, 0
info: Block# = 227 ==>  1, 0, 0
info: Block# = 228 ==>  0, 0, 0
info: Block# = 229 ==>  2, 0, 0
info: Block# = 230 ==>  0, 0, 0
info: Block# = 231 ==>  1, 0, 0
info: Block# = 232 ==>  0, 0, 0
info: Block# = 233 ==>  0, 0, 0
info: Block# = 234 ==>  1, 0, 0
info: Block# = 235 ==>  4, 0, 0
info: Block# = 236 ==>  0, 0, 0
info: Block# = 237 ==>  2, 0, 0
info: Block# = 238 ==>  0, 0, 0
info: Block# = 239 ==>  4, 0, 0
info: Block# = 240 ==>  0, 0, 0
info: Block# = 241 ==>  4, 0, 0
info: Block# = 242 ==>  2, 0, 0
info: Block# = 243 ==>  1, 0, 0
info: Block# = 244 ==>  0, 0, 0
info: Block# = 245 ==>  2, 0, 0
info: Block# = 246 ==>  0, 0, 0
info: Block# = 247 ==>  2, 0, 0
info: Block# = 248 ==>  0, 0, 0
info: Block# = 249 ==>  0, 0, 0
info: Block# = 250 ==>  3, 0, 0
info: Block# = 251 ==>  1, 0, 0
info: Block# = 252 ==>  0, 0, 0
info: Block# = 253 ==>  3, 0, 0
info: Block# = 254 ==>  2, 0, 0
info: Block# = 255 ==>  3, 0, 0
info: Block# = 256 ==>  0, 0, 0
info: Block# = 257 ==>  2, 0, 0
info: Block# = 258 ==>  4, 0, 0
info: Block# = 259 ==>  2, 0, 0
info: Block# = 260 ==>  0, 0, 0
info: Block# = 261 ==>  1, 0, 0
info: Block# = 262 ==>  1, 0, 0
info: Block# = 263 ==>  2, 0, 0
info: Block# = 264 ==>  0, 0, 0
info: Block# = 265 ==>  2, 0, 0
info: Block# = 266 ==>  2, 0, 0
info: Block# = 267 ==>  2, 0, 0
info: Block# = 268 ==>  0, 0, 0
info: Block# = 269 ==>  5, 0, 0
info: Block# = 270 ==>  1, 0, 0
info: Block# = 271 ==>  4, 0, 0
info: Block# = 272 ==>  0, 0, 0
info: Block# = 273 ==>  0, 0, 0
info: Block# = 274 ==>  1, 0, 0
info: Block# = 275 ==>  2, 0, 0
info: Block# = 276 ==>  0, 0, 0
info: Block# = 277 ==>  2, 0, 0
info: Block# = 278 ==>  3, 0, 0
info: Block# = 279 ==>  3, 0, 0
info: Block# = 280 ==>  0, 0, 0
info: Block# = 281 ==>  1, 0, 0
info: Block# = 282 ==>  2, 0, 0
info: Block# = 283 ==>  2, 0, 0
info: Block# = 284 ==>  0, 0, 0
info: Block# = 285 ==>  0, 0, 0
info: Block# = 286 ==>  2, 0, 0
info: Block# = 287 ==>  2, 0, 0
info: Block# = 288 ==>  0, 0, 0
info: Block# = 289 ==>  3, 0, 0
info: Block# = 290 ==>  2, 0, 0
info: Block# = 291 ==>  3, 0, 0
info: Block# = 292 ==>  0, 0, 0
info: Block# = 293 ==>  1, 0, 0
info: Block# = 294 ==>  1, 0, 0
info: Block# = 295 ==>  2, 0, 0
info: Block# = 296 ==>  0, 0, 0
info: Block# = 297 ==>  3, 0, 0
info: Block# = 298 ==>  0, 0, 0
info: Block# = 299 ==>  2, 0, 0
info: Block# = 300 ==>  0, 0, 0
info: Block# = 301 ==>  0, 0, 0
info: Block# = 302 ==>  2, 0, 0
info: Block# = 303 ==>  2, 0, 0
info: Block# = 304 ==>  0, 0, 0
info: Block# = 305 ==>  0, 0, 0
info: Block# = 306 ==>  1, 0, 0
info: Block# = 307 ==>  2, 0, 0
info: Block# = 308 ==>  0, 0, 0
info: Block# = 309 ==>  1, 0, 0
info: Block# = 310 ==>  2, 0, 0
info: Block# = 311 ==>  3, 0, 0
info: Block# = 312 ==>  0, 0, 0
info: Block# = 313 ==>  1, 0, 0
info: Block# = 314 ==>  1, 0, 0
info: Block# = 315 ==>  1, 0, 0
info: Block# = 316 ==>  0, 0, 0
info: Block# = 317 ==>  2, 0, 0
info: Block# = 318 ==>  1, 0, 0
info: Block# = 319 ==>  1, 0, 0
info: Block# = 320 ==>  0, 0, 0
info: Block# = 321 ==>  1, 0, 0
info: Block# = 322 ==>  3, 0, 0
info: Block# = 323 ==>  0, 0, 0
info: Block# = 324 ==>  0, 0, 0
info: Block# = 325 ==>  2, 0, 0
info: Block# = 326 ==>  1, 0, 0
info: Block# = 327 ==>  1, 0, 0
info: Block# = 328 ==>  0, 0, 0
info: Block# = 329 ==>  0, 0, 0
info: Block# = 330 ==>  3, 0, 0
info: Block# = 331 ==>  0, 0, 0
info: Block# = 332 ==>  0, 0, 0
info: Block# = 333 ==>  2, 0, 0
info: Block# = 334 ==>  0, 0, 0
info: Block# = 335 ==>  1, 0, 0
info: Block# = 336 ==>  0, 0, 0
info: Block# = 337 ==>  3, 0, 0
info: Block# = 338 ==>  3, 0, 0
info: Block# = 339 ==>  3, 0, 0
info: Block# = 340 ==>  0, 0, 0
info: Block# = 341 ==>  4, 0, 0
info: Block# = 342 ==>  1, 0, 0
info: Block# = 343 ==>  2, 0, 0
info: Block# = 344 ==>  0, 0, 0
info: Block# = 345 ==>  5, 0, 0
info: Block# = 346 ==>  2, 0, 0
info: Block# = 347 ==>  1, 0, 0
info: Block# = 348 ==>  0, 0, 0
info: Block# = 349 ==>  2, 0, 0
info: Block# = 350 ==>  1, 0, 0
info: Block# = 351 ==>  3, 0, 0
info: Block# = 352 ==>  0, 0, 0
info: Block# = 353 ==>  2, 0, 0
info: Block# = 354 ==>  2, 0, 0
info: Block# = 355 ==>  2, 0, 0
info: Block# = 356 ==>  0, 0, 0
info: Block# = 357 ==>  3, 0, 0
info: Block# = 358 ==>  2, 0, 0
info: Block# = 359 ==>  6, 0, 0
info: Block# = 360 ==>  0, 0, 0
info: Block# = 361 ==>  1, 0, 0
info: Block# = 362 ==>  2, 0, 0
info: Block# = 363 ==>  0, 0, 0
info: Block# = 364 ==>  0, 0, 0
info: Block# = 365 ==>  2, 0, 0
info: Block# = 366 ==>  2, 0, 0
info: Block# = 367 ==>  1, 0, 0
info: Block# = 368 ==>  0, 0, 0
info: Block# = 369 ==>  1, 0, 0
info: Block# = 370 ==>  4, 0, 0
info: Block# = 371 ==>  2, 0, 0
info: Block# = 372 ==>  0, 0, 0
info: Block# = 373 ==>  1, 0, 0
info: Block# = 374 ==>  1, 0, 0
info: Block# = 375 ==>  1, 0, 0
info: Block# = 376 ==>  0, 0, 0
info: Block# = 377 ==>  2, 0, 0
info: Block# = 378 ==>  2, 0, 0
info: Block# = 379 ==>  0, 0, 0
info: Block# = 380 ==>  0, 0, 0
info: Block# = 381 ==>  3, 0, 0
info: Block# = 382 ==>  4, 0, 0
info: Block# = 383 ==>  1, 0, 0
info: Block# = 384 ==>  0, 0, 0
info: Block# = 385 ==>  3, 0, 0
info: Block# = 386 ==>  1, 0, 0
info: Block# = 387 ==>  1, 0, 0
info: Block# = 388 ==>  0, 0, 0
info: Block# = 389 ==>  1, 0, 0
info: Block# = 390 ==>  1, 0, 0
info: Block# = 391 ==>  1, 0, 0
info: Block# = 392 ==>  0, 0, 0
info: Block# = 393 ==>  1, 0, 0
info: Block# = 394 ==>  1, 0, 0
info: Block# = 395 ==>  2, 0, 0
info: Block# = 396 ==>  0, 0, 0
info: Block# = 397 ==>  1, 0, 0
info: Block# = 398 ==>  0, 0, 0
info: Block# = 399 ==>  3, 0, 0
info: Block# = 400 ==>  0, 0, 0
info: Block# = 401 ==>  1, 0, 0
info: Block# = 402 ==>  2, 0, 0
info: Block# = 403 ==>  2, 0, 0
info: Block# = 404 ==>  0, 0, 0
info: Block# = 405 ==>  1, 0, 0
info: Block# = 406 ==>  1, 0, 0
info: Block# = 407 ==>  1, 0, 0
info: Block# = 408 ==>  0, 0, 0
info: Block# = 409 ==>  1, 0, 0
info: Block# = 410 ==>  6, 0, 0
info: Block# = 411 ==>  3, 0, 0
info: Block# = 412 ==>  0, 0, 0
info: Block# = 413 ==>  1, 0, 0
info: Block# = 414 ==>  1, 0, 0
info: Block# = 415 ==>  3, 0, 0
info: Block# = 416 ==>  0, 0, 0
info: Block# = 417 ==>  2, 0, 0
info: Block# = 418 ==>  5, 0, 0
info: Block# = 419 ==>  1, 0, 0
info: Block# = 420 ==>  0, 0, 0
info: Block# = 421 ==>  3, 0, 0
info: Block# = 422 ==>  1, 0, 0
info: Block# = 423 ==>  4, 0, 0
info: Block# = 424 ==>  0, 0, 0
info: Block# = 425 ==>  0, 0, 0
info: Block# = 426 ==>  2, 0, 0
info: Block# = 427 ==>  1, 0, 0
info: Block# = 428 ==>  0, 0, 0
info: Block# = 429 ==>  4, 0, 0
info: Block# = 430 ==>  1, 0, 0
info: Block# = 431 ==>  1, 0, 0
info: Block# = 432 ==>  0, 0, 0
info: Block# = 433 ==>  2, 0, 0
info: Block# = 434 ==>  2, 0, 0
info: Block# = 435 ==>  3, 0, 0
info: Block# = 436 ==>  0, 0, 0
info: Block# = 437 ==>  2, 0, 0
info: Block# = 438 ==>  2, 0, 0
info: Block# = 439 ==>  0, 0, 0
info: Block# = 440 ==>  0, 0, 0
info: Block# = 441 ==>  1, 0, 0
info: Block# = 442 ==>  1, 0, 0
info: Block# = 443 ==>  2, 0, 0
info: Block# = 444 ==>  0, 0, 0
info: Block# = 445 ==>  1, 0, 0
info: Block# = 446 ==>  0, 0, 0
info: Block# = 447 ==>  0, 0, 0
info: Block# = 448 ==>  0, 0, 0
info: Block# = 449 ==>  2, 0, 0
info: Block# = 450 ==>  0, 0, 0
info: Block# = 451 ==>  2, 0, 0
info: Block# = 452 ==>  0, 0, 0
info: Block# = 453 ==>  3, 0, 0
info: Block# = 454 ==>  2, 0, 0
info: Block# = 455 ==>  2, 0, 0
info: Block# = 456 ==>  0, 0, 0
info: Block# = 457 ==>  4, 0, 0
info: Block# = 458 ==>  1, 0, 0
info: Block# = 459 ==>  0, 0, 0
info: Block# = 460 ==>  0, 0, 0
info: Block# = 461 ==>  2, 0, 0
info: Block# = 462 ==>  3, 0, 0
info: Block# = 463 ==>  2, 0, 0
info: Block# = 464 ==>  0, 0, 0
info: Block# = 465 ==>  2, 0, 0
info: Block# = 466 ==>  2, 0, 0
info: Block# = 467 ==>  1, 0, 0
info: Block# = 468 ==>  0, 0, 0
info: Block# = 469 ==>  0, 0, 0
info: Block# = 470 ==>  1, 0, 0
info: Block# = 471 ==>  3, 0, 0
info: Block# = 472 ==>  0, 0, 0
info: Block# = 473 ==>  2, 0, 0
info: Block# = 474 ==>  3, 0, 0
info: Block# = 475 ==>  0, 0, 0
info: Block# = 476 ==>  0, 0, 0
info: Block# = 477 ==>  1, 0, 0
info: Block# = 478 ==>  1, 0, 0
info: Block# = 479 ==>  3, 0, 0
info: Block# = 480 ==>  0, 0, 0
info: Block# = 481 ==>  1, 0, 0
info: Block# = 482 ==>  2, 0, 0
info: Block# = 483 ==>  1, 0, 0
info: Block# = 484 ==>  0, 0, 0
info: Block# = 485 ==>  0, 0, 0
info: Block# = 486 ==>  1, 0, 0
info: Block# = 487 ==>  2, 0, 0
info: Block# = 488 ==>  0, 0, 0
info: Block# = 489 ==>  0, 0, 0
info: Block# = 490 ==>  1, 0, 0
info: Block# = 491 ==>  1, 0, 0
info: Block# = 492 ==>  0, 0, 0
info: Block# = 493 ==>  2, 0, 0
info: Block# = 494 ==>  4, 0, 0
info: Block# = 495 ==>  2, 0, 0
info: Block# = 496 ==>  0, 0, 0
info: Block# = 497 ==>  2, 0, 0
info: Block# = 498 ==>  1, 0, 0
info: Block# = 499 ==>  3, 0, 0
info: Block# = 500 ==>  0, 0, 0
info: Block# = 501 ==>  2, 0, 0
info: Block# = 502 ==>  0, 0, 0
info: Block# = 503 ==>  3, 0, 0
info: Block# = 504 ==>  0, 0, 0
info: Block# = 505 ==>  1, 0, 0
info: Block# = 506 ==>  3, 0, 0
info: Block# = 507 ==>  3, 0, 0
info: Block# = 508 ==>  0, 0, 0
info: Block# = 509 ==>  2, 0, 0
info: Block# = 510 ==>  3, 0, 0
info: Block# = 511 ==>  1, 0, 0
info: Block [0][2] disabled and invalidated 
info: Block [0][3] disabled and invalidated 
info: Block [1][1] disabled and invalidated 
info: Block [3][2] disabled and invalidated 
info: Block [3][3] disabled and invalidated 
info: Block [4][2] disabled and invalidated 
info: Block [5][3] disabled and invalidated 
info: Block [7][1] disabled and invalidated 
info: Block [9][1] disabled and invalidated 
info: Block [9][3] disabled and invalidated 
info: Block [10][1] disabled and invalidated 
info: Block [11][3] disabled and invalidated 
info: Block [12][2] disabled and invalidated 
info: Block [15][3] disabled and invalidated 
info: Block [16][1] disabled and invalidated 
info: Block [16][2] disabled and invalidated 
info: Block [19][1] disabled and invalidated 
info: Block [19][3] disabled and invalidated 
info: Block [20][3] disabled and invalidated 
info: Block [21][1] disabled and invalidated 
info: Block [22][1] disabled and invalidated 
info: Block [22][2] disabled and invalidated 
info: Block [22][3] disabled and invalidated 
info: Block [23][1] disabled and invalidated 
info: Block [24][3] disabled and invalidated 
info: Block [25][1] disabled and invalidated 
info: Block [26][2] disabled and invalidated 
info: Block [28][3] disabled and invalidated 
info: Block [30][1] disabled and invalidated 
info: Block [30][2] disabled and invalidated 
info: Block [30][3] disabled and invalidated 
info: Block [31][1] disabled and invalidated 
info: Block [31][2] disabled and invalidated 
info: Block [31][3] disabled and invalidated 
info: Block [32][1] disabled and invalidated 
info: Block [32][3] disabled and invalidated 
info: Block [33][1] disabled and invalidated 
info: Block [34][1] disabled and invalidated 
info: Block [35][1] disabled and invalidated 
info: Block [35][2] disabled and invalidated 
info: Block [37][1] disabled and invalidated 
info: Block [37][2] disabled and invalidated 
info: Block [38][2] disabled and invalidated 
info: Block [39][2] disabled and invalidated 
info: Block [39][3] disabled and invalidated 
info: Block [40][2] disabled and invalidated 
info: Block [41][2] disabled and invalidated 
info: Block [41][3] disabled and invalidated 
info: Block [42][1] disabled and invalidated 
info: Block [42][2] disabled and invalidated 
info: Block [42][3] disabled and invalidated 
info: Block [43][1] disabled and invalidated 
info: Block [43][3] disabled and invalidated 
info: Block [44][3] disabled and invalidated 
info: Block [45][3] disabled and invalidated 
info: Block [46][1] disabled and invalidated 
info: Block [46][3] disabled and invalidated 
info: Block [47][3] disabled and invalidated 
info: Block [48][2] disabled and invalidated 
info: Block [48][3] disabled and invalidated 
info: Block [49][1] disabled and invalidated 
info: Block [49][3] disabled and invalidated 
info: Block [50][2] disabled and invalidated 
info: Block [50][3] disabled and invalidated 
info: Block [51][1] disabled and invalidated 
info: Block [51][2] disabled and invalidated 
info: Block [54][3] disabled and invalidated 
info: Block [56][1] disabled and invalidated 
info: Block [56][2] disabled and invalidated 
info: Block [57][1] disabled and invalidated 
info: Block [58][3] disabled and invalidated 
info: Block [59][1] disabled and invalidated 
info: Block [59][3] disabled and invalidated 
info: Block [60][1] disabled and invalidated 
info: Block [60][2] disabled and invalidated 
info: Block [61][1] disabled and invalidated 
info: Block [61][3] disabled and invalidated 
info: Block [62][2] disabled and invalidated 
info: Block [63][1] disabled and invalidated 
info: Block [63][2] disabled and invalidated 
info: Block [63][3] disabled and invalidated 
info: Block [64][1] disabled and invalidated 
info: Block [64][2] disabled and invalidated 
info: Block [64][3] disabled and invalidated 
info: Block [65][3] disabled and invalidated 
info: Block [66][1] disabled and invalidated 
info: Block [66][2] disabled and invalidated 
info: Block [66][3] disabled and invalidated 
info: Block [67][1] disabled and invalidated 
info: Block [67][3] disabled and invalidated 
info: Block [68][3] disabled and invalidated 
info: Block [69][1] disabled and invalidated 
info: Block [69][2] disabled and invalidated 
info: Block [69][3] disabled and invalidated 
info: Block [70][2] disabled and invalidated 
info: Block [70][3] disabled and invalidated 
info: Block [71][2] disabled and invalidated 
info: Block [71][3] disabled and invalidated 
info: Block [72][1] disabled and invalidated 
info: Block [72][2] disabled and invalidated 
info: Block [72][3] disabled and invalidated 
info: Block [73][3] disabled and invalidated 
info: Block [74][1] disabled and invalidated 
info: Block [74][3] disabled and invalidated 
info: Block [75][2] disabled and invalidated 
info: Block [75][3] disabled and invalidated 
info: Block [76][3] disabled and invalidated 
info: Block [77][2] disabled and invalidated 
info: Block [77][3] disabled and invalidated 
info: Block [79][1] disabled and invalidated 
info: Block [80][2] disabled and invalidated 
info: Block [81][1] disabled and invalidated 
info: Block [82][2] disabled and invalidated 
info: Block [83][1] disabled and invalidated 
info: Block [84][1] disabled and invalidated 
info: Block [84][2] disabled and invalidated 
info: Block [84][3] disabled and invalidated 
info: Block [85][1] disabled and invalidated 
info: Block [85][3] disabled and invalidated 
info: Block [86][1] disabled and invalidated 
info: Block [86][2] disabled and invalidated 
info: Block [87][1] disabled and invalidated 
info: Block [87][3] disabled and invalidated 
info: Block [88][1] disabled and invalidated 
info: Block [88][2] disabled and invalidated 
info: Block [88][3] disabled and invalidated 
info: Block [89][1] disabled and invalidated 
info: Block [89][2] disabled and invalidated 
info: Block [89][3] disabled and invalidated 
info: Block [90][2] disabled and invalidated 
info: Block [91][1] disabled and invalidated 
info: Block [91][2] disabled and invalidated 
info: Block [92][2] disabled and invalidated 
info: Block [92][3] disabled and invalidated 
info: Block [94][1] disabled and invalidated 
info: Block [94][2] disabled and invalidated 
info: Block [95][1] disabled and invalidated 
info: Block [95][2] disabled and invalidated 
info: Block [96][1] disabled and invalidated 
info: Block [98][3] disabled and invalidated 
info: Block [99][3] disabled and invalidated 
info: Block [100][2] disabled and invalidated 
info: Block [100][3] disabled and invalidated 
info: Block [102][2] disabled and invalidated 
info: Block [102][3] disabled and invalidated 
info: Block [103][3] disabled and invalidated 
info: Block [104][1] disabled and invalidated 
info: Block [104][2] disabled and invalidated 
info: Block [105][1] disabled and invalidated 
info: Block [105][3] disabled and invalidated 
info: Block [106][2] disabled and invalidated 
info: Block [107][1] disabled and invalidated 
info: Block [108][1] disabled and invalidated 
info: Block [108][2] disabled and invalidated 
info: Block [108][3] disabled and invalidated 
info: Block [109][1] disabled and invalidated 
info: Block [109][2] disabled and invalidated 
info: Block [110][3] disabled and invalidated 
info: Block [112][1] disabled and invalidated 
info: Block [112][3] disabled and invalidated 
info: Block [113][1] disabled and invalidated 
info: Block [113][2] disabled and invalidated 
info: Block [113][3] disabled and invalidated 
info: Block [114][1] disabled and invalidated 
info: Block [115][1] disabled and invalidated 
info: Block [115][2] disabled and invalidated 
info: Block [115][3] disabled and invalidated 
info: Block [116][1] disabled and invalidated 
info: Block [116][2] disabled and invalidated 
info: Block [117][3] disabled and invalidated 
info: Block [118][1] disabled and invalidated 
info: Block [118][2] disabled and invalidated 
info: Block [119][3] disabled and invalidated 
info: Block [120][2] disabled and invalidated 
info: Block [121][3] disabled and invalidated 
info: Block [123][1] disabled and invalidated 
info: Block [123][2] disabled and invalidated 
info: Block [123][3] disabled and invalidated 
info: Block [124][1] disabled and invalidated 
info: Block [124][3] disabled and invalidated 
info: Block [125][1] disabled and invalidated 
info: Block [125][3] disabled and invalidated 
info: Block [126][2] disabled and invalidated 
info: Block [126][3] disabled and invalidated 
info: Block [127][1] disabled and invalidated 
info: Block [127][2] disabled and invalidated 
info: Dumping cache status for current VDD = 480 mV and AFB = 1...
info: Status Bits: Disabled, Faulty, HWPrefetched, Referenced | Dirty, Readable, Writable, Valid
info: Block# = 0 ==>  0
info: Block# = 1 ==> 40
info: Block# = 2 ==> c0
info: Block# = 3 ==> c0
info: Block# = 4 ==>  0
info: Block# = 5 ==> c0
info: Block# = 6 ==> 40
info: Block# = 7 ==>  0
info: Block# = 8 ==>  0
info: Block# = 9 ==>  0
info: Block# = 10 ==> 40
info: Block# = 11 ==>  0
info: Block# = 12 ==>  0
info: Block# = 13 ==> 40
info: Block# = 14 ==> c0
info: Block# = 15 ==> c0
info: Block# = 16 ==>  0
info: Block# = 17 ==>  0
info: Block# = 18 ==> c0
info: Block# = 19 ==> 40
info: Block# = 20 ==>  0
info: Block# = 21 ==>  0
info: Block# = 22 ==> 40
info: Block# = 23 ==> c0
info: Block# = 24 ==>  0
info: Block# = 25 ==>  0
info: Block# = 26 ==> 40
info: Block# = 27 ==>  0
info: Block# = 28 ==>  0
info: Block# = 29 ==> c0
info: Block# = 30 ==> 40
info: Block# = 31 ==>  0
info: Block# = 32 ==>  0
info: Block# = 33 ==>  0
info: Block# = 34 ==> 40
info: Block# = 35 ==>  0
info: Block# = 36 ==>  0
info: Block# = 37 ==> c0
info: Block# = 38 ==> 40
info: Block# = 39 ==> c0
info: Block# = 40 ==>  0
info: Block# = 41 ==> c0
info: Block# = 42 ==> 40
info: Block# = 43 ==>  0
info: Block# = 44 ==>  0
info: Block# = 45 ==> 40
info: Block# = 46 ==> 40
info: Block# = 47 ==> c0
info: Block# = 48 ==>  0
info: Block# = 49 ==>  0
info: Block# = 50 ==> c0
info: Block# = 51 ==>  0
info: Block# = 52 ==>  0
info: Block# = 53 ==> 40
info: Block# = 54 ==>  0
info: Block# = 55 ==> 40
info: Block# = 56 ==>  0
info: Block# = 57 ==> 40
info: Block# = 58 ==> 40
info: Block# = 59 ==>  0
info: Block# = 60 ==>  0
info: Block# = 61 ==> 40
info: Block# = 62 ==> 40
info: Block# = 63 ==> c0
info: Block# = 64 ==>  0
info: Block# = 65 ==> c0
info: Block# = 66 ==> c0
info: Block# = 67 ==>  0
info: Block# = 68 ==>  0
info: Block# = 69 ==> 40
info: Block# = 70 ==> 40
info: Block# = 71 ==>  0
info: Block# = 72 ==>  0
info: Block# = 73 ==>  0
info: Block# = 74 ==> 40
info: Block# = 75 ==> 40
info: Block# = 76 ==>  0
info: Block# = 77 ==> c0
info: Block# = 78 ==> 40
info: Block# = 79 ==> c0
info: Block# = 80 ==>  0
info: Block# = 81 ==> 40
info: Block# = 82 ==> 40
info: Block# = 83 ==> c0
info: Block# = 84 ==>  0
info: Block# = 85 ==> c0
info: Block# = 86 ==> 40
info: Block# = 87 ==>  0
info: Block# = 88 ==>  0
info: Block# = 89 ==> c0
info: Block# = 90 ==> c0
info: Block# = 91 ==> c0
info: Block# = 92 ==>  0
info: Block# = 93 ==> c0
info: Block# = 94 ==> 40
info: Block# = 95 ==> 40
info: Block# = 96 ==>  0
info: Block# = 97 ==> 40
info: Block# = 98 ==> 40
info: Block# = 99 ==> c0
info: Block# = 100 ==>  0
info: Block# = 101 ==> c0
info: Block# = 102 ==> 40
info: Block# = 103 ==>  0
info: Block# = 104 ==>  0
info: Block# = 105 ==>  0
info: Block# = 106 ==> c0
info: Block# = 107 ==> 40
info: Block# = 108 ==>  0
info: Block# = 109 ==> 40
info: Block# = 110 ==> 40
info: Block# = 111 ==>  0
info: Block# = 112 ==>  0
info: Block# = 113 ==>  0
info: Block# = 114 ==> 40
info: Block# = 115 ==> c0
info: Block# = 116 ==>  0
info: Block# = 117 ==>  0
info: Block# = 118 ==> 40
info: Block# = 119 ==> 40
info: Block# = 120 ==>  0
info: Block# = 121 ==> c0
info: Block# = 122 ==> c0
info: Block# = 123 ==> c0
info: Block# = 124 ==>  0
info: Block# = 125 ==> c0
info: Block# = 126 ==> c0
info: Block# = 127 ==> c0
info: Block# = 128 ==>  0
info: Block# = 129 ==> c0
info: Block# = 130 ==> 40
info: Block# = 131 ==> c0
info: Block# = 132 ==>  0
info: Block# = 133 ==> c0
info: Block# = 134 ==> 40
info: Block# = 135 ==>  0
info: Block# = 136 ==>  0
info: Block# = 137 ==> c0
info: Block# = 138 ==> 40
info: Block# = 139 ==> 40
info: Block# = 140 ==>  0
info: Block# = 141 ==> c0
info: Block# = 142 ==> c0
info: Block# = 143 ==>  0
info: Block# = 144 ==>  0
info: Block# = 145 ==> 40
info: Block# = 146 ==>  0
info: Block# = 147 ==>  0
info: Block# = 148 ==>  0
info: Block# = 149 ==> c0
info: Block# = 150 ==> c0
info: Block# = 151 ==> 40
info: Block# = 152 ==>  0
info: Block# = 153 ==>  0
info: Block# = 154 ==> c0
info: Block# = 155 ==>  0
info: Block# = 156 ==>  0
info: Block# = 157 ==> 40
info: Block# = 158 ==> c0
info: Block# = 159 ==> c0
info: Block# = 160 ==>  0
info: Block# = 161 ==>  0
info: Block# = 162 ==> c0
info: Block# = 163 ==>  0
info: Block# = 164 ==>  0
info: Block# = 165 ==>  0
info: Block# = 166 ==> c0
info: Block# = 167 ==> c0
info: Block# = 168 ==>  0
info: Block# = 169 ==> c0
info: Block# = 170 ==> c0
info: Block# = 171 ==> c0
info: Block# = 172 ==>  0
info: Block# = 173 ==> c0
info: Block# = 174 ==>  0
info: Block# = 175 ==> c0
info: Block# = 176 ==>  0
info: Block# = 177 ==> 40
info: Block# = 178 ==>  0
info: Block# = 179 ==> c0
info: Block# = 180 ==>  0
info: Block# = 181 ==> 40
info: Block# = 182 ==>  0
info: Block# = 183 ==> c0
info: Block# = 184 ==>  0
info: Block# = 185 ==> c0
info: Block# = 186 ==>  0
info: Block# = 187 ==> c0
info: Block# = 188 ==>  0
info: Block# = 189 ==>  0
info: Block# = 190 ==> 40
info: Block# = 191 ==> c0
info: Block# = 192 ==>  0
info: Block# = 193 ==> 40
info: Block# = 194 ==> c0
info: Block# = 195 ==> c0
info: Block# = 196 ==>  0
info: Block# = 197 ==> c0
info: Block# = 198 ==> 40
info: Block# = 199 ==> c0
info: Block# = 200 ==>  0
info: Block# = 201 ==> 40
info: Block# = 202 ==> c0
info: Block# = 203 ==> c0
info: Block# = 204 ==>  0
info: Block# = 205 ==> c0
info: Block# = 206 ==> c0
info: Block# = 207 ==> 40
info: Block# = 208 ==>  0
info: Block# = 209 ==>  0
info: Block# = 210 ==>  0
info: Block# = 211 ==> 40
info: Block# = 212 ==>  0
info: Block# = 213 ==> 40
info: Block# = 214 ==> 40
info: Block# = 215 ==>  0
info: Block# = 216 ==>  0
info: Block# = 217 ==>  0
info: Block# = 218 ==> 40
info: Block# = 219 ==> c0
info: Block# = 220 ==>  0
info: Block# = 221 ==>  0
info: Block# = 222 ==> 40
info: Block# = 223 ==> 40
info: Block# = 224 ==>  0
info: Block# = 225 ==> c0
info: Block# = 226 ==> c0
info: Block# = 227 ==> 40
info: Block# = 228 ==>  0
info: Block# = 229 ==> c0
info: Block# = 230 ==>  0
info: Block# = 231 ==> 40
info: Block# = 232 ==>  0
info: Block# = 233 ==>  0
info: Block# = 234 ==> 40
info: Block# = 235 ==> c0
info: Block# = 236 ==>  0
info: Block# = 237 ==> c0
info: Block# = 238 ==>  0
info: Block# = 239 ==> c0
info: Block# = 240 ==>  0
info: Block# = 241 ==> c0
info: Block# = 242 ==> c0
info: Block# = 243 ==> 40
info: Block# = 244 ==>  0
info: Block# = 245 ==> c0
info: Block# = 246 ==>  0
info: Block# = 247 ==> c0
info: Block# = 248 ==>  0
info: Block# = 249 ==>  0
info: Block# = 250 ==> c0
info: Block# = 251 ==> 40
info: Block# = 252 ==>  0
info: Block# = 253 ==> c0
info: Block# = 254 ==> c0
info: Block# = 255 ==> c0
info: Block# = 256 ==>  0
info: Block# = 257 ==> c0
info: Block# = 258 ==> c0
info: Block# = 259 ==> c0
info: Block# = 260 ==>  0
info: Block# = 261 ==> 40
info: Block# = 262 ==> 40
info: Block# = 263 ==> c0
info: Block# = 264 ==>  0
info: Block# = 265 ==> c0
info: Block# = 266 ==> c0
info: Block# = 267 ==> c0
info: Block# = 268 ==>  0
info: Block# = 269 ==> c0
info: Block# = 270 ==> 40
info: Block# = 271 ==> c0
info: Block# = 272 ==>  0
info: Block# = 273 ==>  0
info: Block# = 274 ==> 40
info: Block# = 275 ==> c0
info: Block# = 276 ==>  0
info: Block# = 277 ==> c0
info: Block# = 278 ==> c0
info: Block# = 279 ==> c0
info: Block# = 280 ==>  0
info: Block# = 281 ==> 40
info: Block# = 282 ==> c0
info: Block# = 283 ==> c0
info: Block# = 284 ==>  0
info: Block# = 285 ==>  0
info: Block# = 286 ==> c0
info: Block# = 287 ==> c0
info: Block# = 288 ==>  0
info: Block# = 289 ==> c0
info: Block# = 290 ==> c0
info: Block# = 291 ==> c0
info: Block# = 292 ==>  0
info: Block# = 293 ==> 40
info: Block# = 294 ==> 40
info: Block# = 295 ==> c0
info: Block# = 296 ==>  0
info: Block# = 297 ==> c0
info: Block# = 298 ==>  0
info: Block# = 299 ==> c0
info: Block# = 300 ==>  0
info: Block# = 301 ==>  0
info: Block# = 302 ==> c0
info: Block# = 303 ==> c0
info: Block# = 304 ==>  0
info: Block# = 305 ==>  0
info: Block# = 306 ==> 40
info: Block# = 307 ==> c0
info: Block# = 308 ==>  0
info: Block# = 309 ==> 40
info: Block# = 310 ==> c0
info: Block# = 311 ==> c0
info: Block# = 312 ==>  0
info: Block# = 313 ==> 40
info: Block# = 314 ==> 40
info: Block# = 315 ==> 40
info: Block# = 316 ==>  0
info: Block# = 317 ==> c0
info: Block# = 318 ==> 40
info: Block# = 319 ==> 40
info: Block# = 320 ==>  0
info: Block# = 321 ==> 40
info: Block# = 322 ==> c0
info: Block# = 323 ==>  0
info: Block# = 324 ==>  0
info: Block# = 325 ==> c0
info: Block# = 326 ==> 40
info: Block# = 327 ==> 40
info: Block# = 328 ==>  0
info: Block# = 329 ==>  0
info: Block# = 330 ==> c0
info: Block# = 331 ==>  0
info: Block# = 332 ==>  0
info: Block# = 333 ==> c0
info: Block# = 334 ==>  0
info: Block# = 335 ==> 40
info: Block# = 336 ==>  0
info: Block# = 337 ==> c0
info: Block# = 338 ==> c0
info: Block# = 339 ==> c0
info: Block# = 340 ==>  0
info: Block# = 341 ==> c0
info: Block# = 342 ==> 40
info: Block# = 343 ==> c0
info: Block# = 344 ==>  0
info: Block# = 345 ==> c0
info: Block# = 346 ==> c0
info: Block# = 347 ==> 40
info: Block# = 348 ==>  0
info: Block# = 349 ==> c0
info: Block# = 350 ==> 40
info: Block# = 351 ==> c0
info: Block# = 352 ==>  0
info: Block# = 353 ==> c0
info: Block# = 354 ==> c0
info: Block# = 355 ==> c0
info: Block# = 356 ==>  0
info: Block# = 357 ==> c0
info: Block# = 358 ==> c0
info: Block# = 359 ==> c0
info: Block# = 360 ==>  0
info: Block# = 361 ==> 40
info: Block# = 362 ==> c0
info: Block# = 363 ==>  0
info: Block# = 364 ==>  0
info: Block# = 365 ==> c0
info: Block# = 366 ==> c0
info: Block# = 367 ==> 40
info: Block# = 368 ==>  0
info: Block# = 369 ==> 40
info: Block# = 370 ==> c0
info: Block# = 371 ==> c0
info: Block# = 372 ==>  0
info: Block# = 373 ==> 40
info: Block# = 374 ==> 40
info: Block# = 375 ==> 40
info: Block# = 376 ==>  0
info: Block# = 377 ==> c0
info: Block# = 378 ==> c0
info: Block# = 379 ==>  0
info: Block# = 380 ==>  0
info: Block# = 381 ==> c0
info: Block# = 382 ==> c0
info: Block# = 383 ==> 40
info: Block# = 384 ==>  0
info: Block# = 385 ==> c0
info: Block# = 386 ==> 40
info: Block# = 387 ==> 40
info: Block# = 388 ==>  0
info: Block# = 389 ==> 40
info: Block# = 390 ==> 40
info: Block# = 391 ==> 40
info: Block# = 392 ==>  0
info: Block# = 393 ==> 40
info: Block# = 394 ==> 40
info: Block# = 395 ==> c0
info: Block# = 396 ==>  0
info: Block# = 397 ==> 40
info: Block# = 398 ==>  0
info: Block# = 399 ==> c0
info: Block# = 400 ==>  0
info: Block# = 401 ==> 40
info: Block# = 402 ==> c0
info: Block# = 403 ==> c0
info: Block# = 404 ==>  0
info: Block# = 405 ==> 40
info: Block# = 406 ==> 40
info: Block# = 407 ==> 40
info: Block# = 408 ==>  0
info: Block# = 409 ==> 40
info: Block# = 410 ==> c0
info: Block# = 411 ==> c0
info: Block# = 412 ==>  0
info: Block# = 413 ==> 40
info: Block# = 414 ==> 40
info: Block# = 415 ==> c0
info: Block# = 416 ==>  0
info: Block# = 417 ==> c0
info: Block# = 418 ==> c0
info: Block# = 419 ==> 40
info: Block# = 420 ==>  0
info: Block# = 421 ==> c0
info: Block# = 422 ==> 40
info: Block# = 423 ==> c0
info: Block# = 424 ==>  0
info: Block# = 425 ==>  0
info: Block# = 426 ==> c0
info: Block# = 427 ==> 40
info: Block# = 428 ==>  0
info: Block# = 429 ==> c0
info: Block# = 430 ==> 40
info: Block# = 431 ==> 40
info: Block# = 432 ==>  0
info: Block# = 433 ==> c0
info: Block# = 434 ==> c0
info: Block# = 435 ==> c0
info: Block# = 436 ==>  0
info: Block# = 437 ==> c0
info: Block# = 438 ==> c0
info: Block# = 439 ==>  0
info: Block# = 440 ==>  0
info: Block# = 441 ==> 40
info: Block# = 442 ==> 40
info: Block# = 443 ==> c0
info: Block# = 444 ==>  0
info: Block# = 445 ==> 40
info: Block# = 446 ==>  0
info: Block# = 447 ==>  0
info: Block# = 448 ==>  0
info: Block# = 449 ==> c0
info: Block# = 450 ==>  0
info: Block# = 451 ==> c0
info: Block# = 452 ==>  0
info: Block# = 453 ==> c0
info: Block# = 454 ==> c0
info: Block# = 455 ==> c0
info: Block# = 456 ==>  0
info: Block# = 457 ==> c0
info: Block# = 458 ==> 40
info: Block# = 459 ==>  0
info: Block# = 460 ==>  0
info: Block# = 461 ==> c0
info: Block# = 462 ==> c0
info: Block# = 463 ==> c0
info: Block# = 464 ==>  0
info: Block# = 465 ==> c0
info: Block# = 466 ==> c0
info: Block# = 467 ==> 40
info: Block# = 468 ==>  0
info: Block# = 469 ==>  0
info: Block# = 470 ==> 40
info: Block# = 471 ==> c0
info: Block# = 472 ==>  0
info: Block# = 473 ==> c0
info: Block# = 474 ==> c0
info: Block# = 475 ==>  0
info: Block# = 476 ==>  0
info: Block# = 477 ==> 40
info: Block# = 478 ==> 40
info: Block# = 479 ==> c0
info: Block# = 480 ==>  0
info: Block# = 481 ==> 40
info: Block# = 482 ==> c0
info: Block# = 483 ==> 40
info: Block# = 484 ==>  0
info: Block# = 485 ==>  0
info: Block# = 486 ==> 40
info: Block# = 487 ==> c0
info: Block# = 488 ==>  0
info: Block# = 489 ==>  0
info: Block# = 490 ==> 40
info: Block# = 491 ==> 40
info: Block# = 492 ==>  0
info: Block# = 493 ==> c0
info: Block# = 494 ==> c0
info: Block# = 495 ==> c0
info: Block# = 496 ==>  0
info: Block# = 497 ==> c0
info: Block# = 498 ==> 40
info: Block# = 499 ==> c0
info: Block# = 500 ==>  0
info: Block# = 501 ==> c0
info: Block# = 502 ==>  0
info: Block# = 503 ==> c0
info: Block# = 504 ==>  0
info: Block# = 505 ==> 40
info: Block# = 506 ==> c0
info: Block# = 507 ==> c0
info: Block# = 508 ==>  0
info: Block# = 509 ==> c0
info: Block# = 510 ==> c0
info: Block# = 511 ==> 40
Switch at instruction count:3390
info: Entering event queue @ 0.  Starting simulation...
info: Increasing stack size by one page.
Switched CPUS @ tick 1710500
switching cpus
**** REAL SIMULATION ****
info: Entering event queue @ 1710500.  Starting simulation...
scale by 2.000000: /home/majid/gem5/gem5-relax/tests/test-progs/scale/inputs/sailboat.ppm -> /home/majid/gem5/gem5-relax/tests/test-progs/scale/outputs/sailboat-X2-480-1-relaxed-1.ppm
read from "/home/majid/gem5/gem5-relax/tests/test-progs/scale/inputs/sailboat.ppm" ...
/home/majid/gem5/gem5-relax/tests/test-progs/scale/inputs/sailboat.ppm: 512 x 512 : 255
40280000: global: Approximate Region Added: begin=0x14010, end=0x31401c, Table Size=1
transformed image size: 1024 x 1024
5566090000: global: Approximate Region Added: begin=0x316010, end=0xf1601c, Table Size=2
write to "/home/majid/gem5/gem5-relax/tests/test-progs/scale/outputs/sailboat-X2-480-1-relaxed-1.ppm" ...
186174064000: global: Approximate Region Removed: begin=0x14010, end=0x31401c, Table Size=1
186174068000: global: Approximate Region Removed: begin=0x316010, end=0xf1601c, Table Size=0
Exiting @ tick 186178777500 because target called exit()
