
---------- Begin Simulation Statistics ----------
sim_seconds                                  0.219261                       # Number of seconds simulated
sim_ticks                                219260967500                       # Number of ticks simulated
final_tick                               219262678500                       # Number of ticks from beginning of simulation (restored from checkpoints and never reset)
sim_freq                                 1000000000000                       # Frequency of simulated ticks
host_inst_rate                                  35746                       # Simulator instruction rate (inst/s)
host_op_rate                                    35746                       # Simulator op (including micro ops) rate (op/s)
host_tick_rate                               11360519                       # Simulator tick rate (ticks/s)
host_mem_usage                                 750128                       # Number of bytes of host memory used
host_seconds                                 19300.26                       # Real time elapsed on the host
sim_insts                                   689910491                       # Number of instructions simulated
sim_ops                                     689910491                       # Number of ops (including micro ops) simulated
system.physmem.bytes_read::switch_cpus.inst        34240                       # Number of bytes read from this memory
system.physmem.bytes_read::switch_cpus.data       203648                       # Number of bytes read from this memory
system.physmem.bytes_read::total               237888                       # Number of bytes read from this memory
system.physmem.bytes_inst_read::switch_cpus.inst        34240                       # Number of instructions bytes read from this memory
system.physmem.bytes_inst_read::total           34240                       # Number of instructions bytes read from this memory
system.physmem.bytes_written::writebacks          640                       # Number of bytes written to this memory
system.physmem.bytes_written::total               640                       # Number of bytes written to this memory
system.physmem.num_reads::switch_cpus.inst          535                       # Number of read requests responded to by this memory
system.physmem.num_reads::switch_cpus.data         3182                       # Number of read requests responded to by this memory
system.physmem.num_reads::total                  3717                       # Number of read requests responded to by this memory
system.physmem.num_writes::writebacks              10                       # Number of write requests responded to by this memory
system.physmem.num_writes::total                   10                       # Number of write requests responded to by this memory
system.physmem.bw_read::switch_cpus.inst       156161                       # Total read bandwidth from this memory (bytes/s)
system.physmem.bw_read::switch_cpus.data       928793                       # Total read bandwidth from this memory (bytes/s)
system.physmem.bw_read::total                 1084954                       # Total read bandwidth from this memory (bytes/s)
system.physmem.bw_inst_read::switch_cpus.inst       156161                       # Instruction read bandwidth from this memory (bytes/s)
system.physmem.bw_inst_read::total             156161                       # Instruction read bandwidth from this memory (bytes/s)
system.physmem.bw_write::writebacks              2919                       # Write bandwidth from this memory (bytes/s)
system.physmem.bw_write::total                   2919                       # Write bandwidth from this memory (bytes/s)
system.physmem.bw_total::writebacks              2919                       # Total bandwidth to/from this memory (bytes/s)
system.physmem.bw_total::switch_cpus.inst       156161                       # Total bandwidth to/from this memory (bytes/s)
system.physmem.bw_total::switch_cpus.data       928793                       # Total bandwidth to/from this memory (bytes/s)
system.physmem.bw_total::total                1087873                       # Total bandwidth to/from this memory (bytes/s)
system.physmem.readReqs                          3717                       # Total number of read requests seen
system.physmem.writeReqs                           10                       # Total number of write requests seen
system.physmem.cpureqs                           3727                       # Reqs generatd by CPU via cache - shady
system.physmem.bytesRead                       237888                       # Total number of bytes read from memory
system.physmem.bytesWritten                       640                       # Total number of bytes written to memory
system.physmem.bytesConsumedRd                 237888                       # bytesRead derated as per pkt->getSize()
system.physmem.bytesConsumedWr                    640                       # bytesWritten derated as per pkt->getSize()
system.physmem.servicedByWrQ                        0                       # Number of read reqs serviced by write Q
system.physmem.neitherReadNorWrite                  0                       # Reqs where no action is needed
system.physmem.perBankRdReqs::0                   140                       # Track reads on a per bank basis
system.physmem.perBankRdReqs::1                   140                       # Track reads on a per bank basis
system.physmem.perBankRdReqs::2                   139                       # Track reads on a per bank basis
system.physmem.perBankRdReqs::3                   221                       # Track reads on a per bank basis
system.physmem.perBankRdReqs::4                   401                       # Track reads on a per bank basis
system.physmem.perBankRdReqs::5                   180                       # Track reads on a per bank basis
system.physmem.perBankRdReqs::6                   446                       # Track reads on a per bank basis
system.physmem.perBankRdReqs::7                   505                       # Track reads on a per bank basis
system.physmem.perBankRdReqs::8                   322                       # Track reads on a per bank basis
system.physmem.perBankRdReqs::9                   166                       # Track reads on a per bank basis
system.physmem.perBankRdReqs::10                  310                       # Track reads on a per bank basis
system.physmem.perBankRdReqs::11                  154                       # Track reads on a per bank basis
system.physmem.perBankRdReqs::12                  156                       # Track reads on a per bank basis
system.physmem.perBankRdReqs::13                  148                       # Track reads on a per bank basis
system.physmem.perBankRdReqs::14                  156                       # Track reads on a per bank basis
system.physmem.perBankRdReqs::15                  133                       # Track reads on a per bank basis
system.physmem.perBankWrReqs::0                     1                       # Track writes on a per bank basis
system.physmem.perBankWrReqs::1                     0                       # Track writes on a per bank basis
system.physmem.perBankWrReqs::2                     1                       # Track writes on a per bank basis
system.physmem.perBankWrReqs::3                     0                       # Track writes on a per bank basis
system.physmem.perBankWrReqs::4                     0                       # Track writes on a per bank basis
system.physmem.perBankWrReqs::5                     0                       # Track writes on a per bank basis
system.physmem.perBankWrReqs::6                     1                       # Track writes on a per bank basis
system.physmem.perBankWrReqs::7                     1                       # Track writes on a per bank basis
system.physmem.perBankWrReqs::8                     1                       # Track writes on a per bank basis
system.physmem.perBankWrReqs::9                     0                       # Track writes on a per bank basis
system.physmem.perBankWrReqs::10                    1                       # Track writes on a per bank basis
system.physmem.perBankWrReqs::11                    0                       # Track writes on a per bank basis
system.physmem.perBankWrReqs::12                    1                       # Track writes on a per bank basis
system.physmem.perBankWrReqs::13                    0                       # Track writes on a per bank basis
system.physmem.perBankWrReqs::14                    1                       # Track writes on a per bank basis
system.physmem.perBankWrReqs::15                    2                       # Track writes on a per bank basis
system.physmem.numRdRetry                           0                       # Number of times rd buffer was full causing retry
system.physmem.numWrRetry                           0                       # Number of times wr buffer was full causing retry
system.physmem.totGap                    219260693500                       # Total gap between requests
system.physmem.readPktSize::0                       0                       # Categorize read packet sizes
system.physmem.readPktSize::1                       0                       # Categorize read packet sizes
system.physmem.readPktSize::2                       0                       # Categorize read packet sizes
system.physmem.readPktSize::3                       0                       # Categorize read packet sizes
system.physmem.readPktSize::4                       0                       # Categorize read packet sizes
system.physmem.readPktSize::5                       0                       # Categorize read packet sizes
system.physmem.readPktSize::6                    3717                       # Categorize read packet sizes
system.physmem.writePktSize::0                      0                       # Categorize write packet sizes
system.physmem.writePktSize::1                      0                       # Categorize write packet sizes
system.physmem.writePktSize::2                      0                       # Categorize write packet sizes
system.physmem.writePktSize::3                      0                       # Categorize write packet sizes
system.physmem.writePktSize::4                      0                       # Categorize write packet sizes
system.physmem.writePktSize::5                      0                       # Categorize write packet sizes
system.physmem.writePktSize::6                     10                       # Categorize write packet sizes
system.physmem.rdQLenPdf::0                      2140                       # What read queue length does an incoming req see
system.physmem.rdQLenPdf::1                      1484                       # What read queue length does an incoming req see
system.physmem.rdQLenPdf::2                        85                       # What read queue length does an incoming req see
system.physmem.rdQLenPdf::3                         7                       # What read queue length does an incoming req see
system.physmem.rdQLenPdf::4                         1                       # What read queue length does an incoming req see
system.physmem.rdQLenPdf::5                         0                       # What read queue length does an incoming req see
system.physmem.rdQLenPdf::6                         0                       # What read queue length does an incoming req see
system.physmem.rdQLenPdf::7                         0                       # What read queue length does an incoming req see
system.physmem.rdQLenPdf::8                         0                       # What read queue length does an incoming req see
system.physmem.rdQLenPdf::9                         0                       # What read queue length does an incoming req see
system.physmem.rdQLenPdf::10                        0                       # What read queue length does an incoming req see
system.physmem.rdQLenPdf::11                        0                       # What read queue length does an incoming req see
system.physmem.rdQLenPdf::12                        0                       # What read queue length does an incoming req see
system.physmem.rdQLenPdf::13                        0                       # What read queue length does an incoming req see
system.physmem.rdQLenPdf::14                        0                       # What read queue length does an incoming req see
system.physmem.rdQLenPdf::15                        0                       # What read queue length does an incoming req see
system.physmem.rdQLenPdf::16                        0                       # What read queue length does an incoming req see
system.physmem.rdQLenPdf::17                        0                       # What read queue length does an incoming req see
system.physmem.rdQLenPdf::18                        0                       # What read queue length does an incoming req see
system.physmem.rdQLenPdf::19                        0                       # What read queue length does an incoming req see
system.physmem.rdQLenPdf::20                        0                       # What read queue length does an incoming req see
system.physmem.rdQLenPdf::21                        0                       # What read queue length does an incoming req see
system.physmem.rdQLenPdf::22                        0                       # What read queue length does an incoming req see
system.physmem.rdQLenPdf::23                        0                       # What read queue length does an incoming req see
system.physmem.rdQLenPdf::24                        0                       # What read queue length does an incoming req see
system.physmem.rdQLenPdf::25                        0                       # What read queue length does an incoming req see
system.physmem.rdQLenPdf::26                        0                       # What read queue length does an incoming req see
system.physmem.rdQLenPdf::27                        0                       # What read queue length does an incoming req see
system.physmem.rdQLenPdf::28                        0                       # What read queue length does an incoming req see
system.physmem.rdQLenPdf::29                        0                       # What read queue length does an incoming req see
system.physmem.rdQLenPdf::30                        0                       # What read queue length does an incoming req see
system.physmem.rdQLenPdf::31                        0                       # What read queue length does an incoming req see
system.physmem.wrQLenPdf::0                         1                       # What write queue length does an incoming req see
system.physmem.wrQLenPdf::1                         1                       # What write queue length does an incoming req see
system.physmem.wrQLenPdf::2                         1                       # What write queue length does an incoming req see
system.physmem.wrQLenPdf::3                         1                       # What write queue length does an incoming req see
system.physmem.wrQLenPdf::4                         1                       # What write queue length does an incoming req see
system.physmem.wrQLenPdf::5                         1                       # What write queue length does an incoming req see
system.physmem.wrQLenPdf::6                         1                       # What write queue length does an incoming req see
system.physmem.wrQLenPdf::7                         1                       # What write queue length does an incoming req see
system.physmem.wrQLenPdf::8                         1                       # What write queue length does an incoming req see
system.physmem.wrQLenPdf::9                         1                       # What write queue length does an incoming req see
system.physmem.wrQLenPdf::10                        0                       # What write queue length does an incoming req see
system.physmem.wrQLenPdf::11                        0                       # What write queue length does an incoming req see
system.physmem.wrQLenPdf::12                        0                       # What write queue length does an incoming req see
system.physmem.wrQLenPdf::13                        0                       # What write queue length does an incoming req see
system.physmem.wrQLenPdf::14                        0                       # What write queue length does an incoming req see
system.physmem.wrQLenPdf::15                        0                       # What write queue length does an incoming req see
system.physmem.wrQLenPdf::16                        0                       # What write queue length does an incoming req see
system.physmem.wrQLenPdf::17                        0                       # What write queue length does an incoming req see
system.physmem.wrQLenPdf::18                        0                       # What write queue length does an incoming req see
system.physmem.wrQLenPdf::19                        0                       # What write queue length does an incoming req see
system.physmem.wrQLenPdf::20                        0                       # What write queue length does an incoming req see
system.physmem.wrQLenPdf::21                        0                       # What write queue length does an incoming req see
system.physmem.wrQLenPdf::22                        0                       # What write queue length does an incoming req see
system.physmem.wrQLenPdf::23                        0                       # What write queue length does an incoming req see
system.physmem.wrQLenPdf::24                        0                       # What write queue length does an incoming req see
system.physmem.wrQLenPdf::25                        0                       # What write queue length does an incoming req see
system.physmem.wrQLenPdf::26                        0                       # What write queue length does an incoming req see
system.physmem.wrQLenPdf::27                        0                       # What write queue length does an incoming req see
system.physmem.wrQLenPdf::28                        0                       # What write queue length does an incoming req see
system.physmem.wrQLenPdf::29                        0                       # What write queue length does an incoming req see
system.physmem.wrQLenPdf::30                        0                       # What write queue length does an incoming req see
system.physmem.wrQLenPdf::31                        0                       # What write queue length does an incoming req see
system.physmem.bytesPerActivate::samples          165                       # Bytes accessed per row activation
system.physmem.bytesPerActivate::mean     1366.496970                       # Bytes accessed per row activation
system.physmem.bytesPerActivate::gmean     250.051356                       # Bytes accessed per row activation
system.physmem.bytesPerActivate::stdev    2668.789014                       # Bytes accessed per row activation
system.physmem.bytesPerActivate::64-65             82     49.70%     49.70% # Bytes accessed per row activation
system.physmem.bytesPerActivate::128-129           10      6.06%     55.76% # Bytes accessed per row activation
system.physmem.bytesPerActivate::192-193            6      3.64%     59.39% # Bytes accessed per row activation
system.physmem.bytesPerActivate::256-257            8      4.85%     64.24% # Bytes accessed per row activation
system.physmem.bytesPerActivate::320-321            4      2.42%     66.67% # Bytes accessed per row activation
system.physmem.bytesPerActivate::384-385            6      3.64%     70.30% # Bytes accessed per row activation
system.physmem.bytesPerActivate::512-513            3      1.82%     72.12% # Bytes accessed per row activation
system.physmem.bytesPerActivate::576-577            3      1.82%     73.94% # Bytes accessed per row activation
system.physmem.bytesPerActivate::640-641            3      1.82%     75.76% # Bytes accessed per row activation
system.physmem.bytesPerActivate::768-769            1      0.61%     76.36% # Bytes accessed per row activation
system.physmem.bytesPerActivate::832-833            4      2.42%     78.79% # Bytes accessed per row activation
system.physmem.bytesPerActivate::896-897            1      0.61%     79.39% # Bytes accessed per row activation
system.physmem.bytesPerActivate::960-961            1      0.61%     80.00% # Bytes accessed per row activation
system.physmem.bytesPerActivate::1024-1025            1      0.61%     80.61% # Bytes accessed per row activation
system.physmem.bytesPerActivate::1472-1473            1      0.61%     81.21% # Bytes accessed per row activation
system.physmem.bytesPerActivate::2112-2113            1      0.61%     81.82% # Bytes accessed per row activation
system.physmem.bytesPerActivate::2176-2177            1      0.61%     82.42% # Bytes accessed per row activation
system.physmem.bytesPerActivate::2368-2369            3      1.82%     84.24% # Bytes accessed per row activation
system.physmem.bytesPerActivate::2432-2433            1      0.61%     84.85% # Bytes accessed per row activation
system.physmem.bytesPerActivate::3008-3009            1      0.61%     85.45% # Bytes accessed per row activation
system.physmem.bytesPerActivate::3072-3073            1      0.61%     86.06% # Bytes accessed per row activation
system.physmem.bytesPerActivate::4480-4481            1      0.61%     86.67% # Bytes accessed per row activation
system.physmem.bytesPerActivate::5184-5185            1      0.61%     87.27% # Bytes accessed per row activation
system.physmem.bytesPerActivate::5824-5825            1      0.61%     87.88% # Bytes accessed per row activation
system.physmem.bytesPerActivate::7552-7553            1      0.61%     88.48% # Bytes accessed per row activation
system.physmem.bytesPerActivate::8128-8129            1      0.61%     89.09% # Bytes accessed per row activation
system.physmem.bytesPerActivate::8192-8193           18     10.91%    100.00% # Bytes accessed per row activation
system.physmem.bytesPerActivate::total            165                       # Bytes accessed per row activation
system.physmem.totQLat                        7622500                       # Total cycles spent in queuing delays
system.physmem.totMemAccLat                  79310000                       # Sum of mem lat for all requests
system.physmem.totBusLat                     18585000                       # Total cycles spent in databus access
system.physmem.totBankLat                    53102500                       # Total cycles spent in bank access
system.physmem.avgQLat                        2050.71                       # Average queueing delay per request
system.physmem.avgBankLat                    14286.39                       # Average bank access latency per request
system.physmem.avgBusLat                      5000.00                       # Average bus latency per request
system.physmem.avgMemAccLat                  21337.10                       # Average memory access latency
system.physmem.avgRdBW                           1.08                       # Average achieved read bandwidth in MB/s
system.physmem.avgWrBW                           0.00                       # Average achieved write bandwidth in MB/s
system.physmem.avgConsumedRdBW                   1.08                       # Average consumed read bandwidth in MB/s
system.physmem.avgConsumedWrBW                   0.00                       # Average consumed write bandwidth in MB/s
system.physmem.peakBW                        12800.00                       # Theoretical peak bandwidth in MB/s
system.physmem.busUtil                           0.01                       # Data bus utilization in percentage
system.physmem.avgRdQLen                         0.00                       # Average read queue length over time
system.physmem.avgWrQLen                         8.92                       # Average write queue length over time
system.physmem.readRowHits                       3552                       # Number of row buffer hits during reads
system.physmem.writeRowHits                         0                       # Number of row buffer hits during writes
system.physmem.readRowHitRate                   95.56                       # Row buffer hit rate for reads
system.physmem.writeRowHitRate                   0.00                       # Row buffer hit rate for writes
system.physmem.avgGap                     58830344.38                       # Average gap between requests
system.membus.throughput                      1087873                       # Throughput (bytes/s)
system.membus.trans_dist::ReadReq                1926                       # Transaction distribution
system.membus.trans_dist::ReadResp               1926                       # Transaction distribution
system.membus.trans_dist::Writeback                10                       # Transaction distribution
system.membus.trans_dist::ReadExReq              1791                       # Transaction distribution
system.membus.trans_dist::ReadExResp             1791                       # Transaction distribution
system.membus.pkt_count_system.l2.mem_side         7444                       # Packet count per connected master and slave (bytes)
system.membus.pkt_count                          7444                       # Packet count per connected master and slave (bytes)
system.membus.tot_pkt_size_system.l2.mem_side       238528                       # Cumulative packet size per connected master and slave (bytes)
system.membus.tot_pkt_size                     238528                       # Cumulative packet size per connected master and slave (bytes)
system.membus.data_through_bus                 238528                       # Total data (bytes)
system.membus.snoop_data_through_bus                0                       # Total snoop data (bytes)
system.membus.reqLayer0.occupancy             1903500                       # Layer occupancy (ticks)
system.membus.reqLayer0.utilization               0.0                       # Layer utilization (%)
system.membus.respLayer1.occupancy           17648000                       # Layer occupancy (ticks)
system.membus.respLayer1.utilization              0.0                       # Layer utilization (%)
system.switch_cpus.branchPred.lookups        23388939                       # Number of BP lookups
system.switch_cpus.branchPred.condPredicted     21873174                       # Number of conditional branches predicted
system.switch_cpus.branchPred.condIncorrect      1266420                       # Number of conditional branches incorrect
system.switch_cpus.branchPred.BTBLookups     23305260                       # Number of BTB lookups
system.switch_cpus.branchPred.BTBHits        23217416                       # Number of BTB hits
system.switch_cpus.branchPred.BTBCorrect            0                       # Number of correct BTB predictions (this stat may not work properly.
system.switch_cpus.branchPred.BTBHitPct     99.623072                       # BTB Hit Percentage
system.switch_cpus.branchPred.usedRAS           81968                       # Number of times the RAS was used to get a target.
system.switch_cpus.branchPred.RASInCorrect           83                       # Number of incorrect RAS predictions.
system.switch_cpus.dtb.fetch_hits                   0                       # ITB hits
system.switch_cpus.dtb.fetch_misses                 0                       # ITB misses
system.switch_cpus.dtb.fetch_acv                    0                       # ITB acv
system.switch_cpus.dtb.fetch_accesses               0                       # ITB accesses
system.switch_cpus.dtb.read_hits            332020423                       # DTB read hits
system.switch_cpus.dtb.read_misses                199                       # DTB read misses
system.switch_cpus.dtb.read_acv                     0                       # DTB read access violations
system.switch_cpus.dtb.read_accesses        332020622                       # DTB read accesses
system.switch_cpus.dtb.write_hits           133099586                       # DTB write hits
system.switch_cpus.dtb.write_misses              1421                       # DTB write misses
system.switch_cpus.dtb.write_acv                    0                       # DTB write access violations
system.switch_cpus.dtb.write_accesses       133101007                       # DTB write accesses
system.switch_cpus.dtb.data_hits            465120009                       # DTB hits
system.switch_cpus.dtb.data_misses               1620                       # DTB misses
system.switch_cpus.dtb.data_acv                     0                       # DTB access violations
system.switch_cpus.dtb.data_accesses        465121629                       # DTB accesses
system.switch_cpus.itb.fetch_hits            65664535                       # ITB hits
system.switch_cpus.itb.fetch_misses               126                       # ITB misses
system.switch_cpus.itb.fetch_acv                    0                       # ITB acv
system.switch_cpus.itb.fetch_accesses        65664661                       # ITB accesses
system.switch_cpus.itb.read_hits                    0                       # DTB read hits
system.switch_cpus.itb.read_misses                  0                       # DTB read misses
system.switch_cpus.itb.read_acv                     0                       # DTB read access violations
system.switch_cpus.itb.read_accesses                0                       # DTB read accesses
system.switch_cpus.itb.write_hits                   0                       # DTB write hits
system.switch_cpus.itb.write_misses                 0                       # DTB write misses
system.switch_cpus.itb.write_acv                    0                       # DTB write access violations
system.switch_cpus.itb.write_accesses               0                       # DTB write accesses
system.switch_cpus.itb.data_hits                    0                       # DTB hits
system.switch_cpus.itb.data_misses                  0                       # DTB misses
system.switch_cpus.itb.data_acv                     0                       # DTB access violations
system.switch_cpus.itb.data_accesses                0                       # DTB accesses
system.cpu.workload.num_syscalls                   18                       # Number of system calls
system.switch_cpus.numCycles                438521935                       # number of cpu cycles simulated
system.switch_cpus.numWorkItemsStarted              0                       # number of work items this cpu started
system.switch_cpus.numWorkItemsCompleted            0                       # number of work items this cpu completed
system.switch_cpus.fetch.icacheStallCycles     65764183                       # Number of cycles fetch is stalled on an Icache miss
system.switch_cpus.fetch.Insts              774969660                       # Number of instructions fetch has processed
system.switch_cpus.fetch.Branches            23388939                       # Number of branches that fetch encountered
system.switch_cpus.fetch.predictedBranches     23299384                       # Number of branches that fetch has predicted taken
system.switch_cpus.fetch.Cycles             107713676                       # Number of cycles fetch has run and was not squashing or blocked
system.switch_cpus.fetch.SquashCycles         9978650                       # Number of cycles fetch has spent squashing
system.switch_cpus.fetch.BlockedCycles      256302222                       # Number of cycles fetch has spent blocked
system.switch_cpus.fetch.MiscStallCycles           84                       # Number of cycles fetch has spent waiting on interrupts, or bad addresses, or out of MSHRs
system.switch_cpus.fetch.PendingTrapStallCycles         3369                       # Number of stall cycles due to pending traps
system.switch_cpus.fetch.IcacheWaitRetryStallCycles           17                       # Number of stall cycles due to full MSHR
system.switch_cpus.fetch.CacheLines          65664535                       # Number of cache lines fetched
system.switch_cpus.fetch.IcacheSquashes          8297                       # Number of outstanding Icache misses that were squashed
system.switch_cpus.fetch.rateDist::samples    438474954                       # Number of instructions fetched each cycle (Total)
system.switch_cpus.fetch.rateDist::mean      1.767421                       # Number of instructions fetched each cycle (Total)
system.switch_cpus.fetch.rateDist::stdev     3.163822                       # Number of instructions fetched each cycle (Total)
system.switch_cpus.fetch.rateDist::underflows            0      0.00%      0.00% # Number of instructions fetched each cycle (Total)
system.switch_cpus.fetch.rateDist::0        330761278     75.43%     75.43% # Number of instructions fetched each cycle (Total)
system.switch_cpus.fetch.rateDist::1          1350230      0.31%     75.74% # Number of instructions fetched each cycle (Total)
system.switch_cpus.fetch.rateDist::2          1282865      0.29%     76.03% # Number of instructions fetched each cycle (Total)
system.switch_cpus.fetch.rateDist::3             9012      0.00%     76.04% # Number of instructions fetched each cycle (Total)
system.switch_cpus.fetch.rateDist::4          2625341      0.60%     76.64% # Number of instructions fetched each cycle (Total)
system.switch_cpus.fetch.rateDist::5           161042      0.04%     76.67% # Number of instructions fetched each cycle (Total)
system.switch_cpus.fetch.rateDist::6         19152017      4.37%     81.04% # Number of instructions fetched each cycle (Total)
system.switch_cpus.fetch.rateDist::7         20257364      4.62%     85.66% # Number of instructions fetched each cycle (Total)
system.switch_cpus.fetch.rateDist::8         62875805     14.34%    100.00% # Number of instructions fetched each cycle (Total)
system.switch_cpus.fetch.rateDist::overflows            0      0.00%    100.00% # Number of instructions fetched each cycle (Total)
system.switch_cpus.fetch.rateDist::min_value            0                       # Number of instructions fetched each cycle (Total)
system.switch_cpus.fetch.rateDist::max_value            8                       # Number of instructions fetched each cycle (Total)
system.switch_cpus.fetch.rateDist::total    438474954                       # Number of instructions fetched each cycle (Total)
system.switch_cpus.fetch.branchRate          0.053336                       # Number of branch fetches per cycle
system.switch_cpus.fetch.rate                1.767231                       # Number of inst fetches per cycle
system.switch_cpus.decode.IdleCycles        102790194                       # Number of cycles decode is idle
system.switch_cpus.decode.BlockedCycles     220477886                       # Number of cycles decode is blocked
system.switch_cpus.decode.RunCycles          40590163                       # Number of cycles decode is running
system.switch_cpus.decode.UnblockCycles      65925619                       # Number of cycles decode is unblocking
system.switch_cpus.decode.SquashCycles        8691091                       # Number of cycles decode is squashing
system.switch_cpus.decode.BranchResolved      1433531                       # Number of times decode resolved a branch
system.switch_cpus.decode.BranchMispred           331                       # Number of times decode detected a branch misprediction
system.switch_cpus.decode.DecodedInsts      765392967                       # Number of instructions handled by decode
system.switch_cpus.decode.SquashedInsts          1012                       # Number of squashed instructions handled by decode
system.switch_cpus.rename.SquashCycles        8691091                       # Number of cycles rename is squashing
system.switch_cpus.rename.IdleCycles        106293389                       # Number of cycles rename is idle
system.switch_cpus.rename.BlockCycles        33815054                       # Number of cycles rename is blocking
system.switch_cpus.rename.serializeStallCycles      4820763                       # count of cycles rename stalled for serializing inst
system.switch_cpus.rename.RunCycles         103089684                       # Number of cycles rename is running
system.switch_cpus.rename.UnblockCycles     181764972                       # Number of cycles rename is unblocking
system.switch_cpus.rename.RenamedInsts      759989600                       # Number of instructions processed by rename
system.switch_cpus.rename.ROBFullEvents            20                       # Number of times rename has blocked due to ROB full
system.switch_cpus.rename.IQFullEvents          11160                       # Number of times rename has blocked due to IQ full
system.switch_cpus.rename.LSQFullEvents     180480682                       # Number of times rename has blocked due to LSQ full
system.switch_cpus.rename.RenamedOperands    593383410                       # Number of destination operands rename has renamed
system.switch_cpus.rename.RenameLookups    1085451094                       # Number of register rename lookups that rename has made
system.switch_cpus.rename.int_rename_lookups   1083840845                       # Number of integer rename lookups
system.switch_cpus.rename.fp_rename_lookups      1610249                       # Number of floating rename lookups
system.switch_cpus.rename.CommittedMaps     538458517                       # Number of HB maps that are committed
system.switch_cpus.rename.UndoneMaps         54924893                       # Number of HB maps that are undone due to squashing
system.switch_cpus.rename.serializingInsts       318143                       # count of serializing insts renamed
system.switch_cpus.rename.tempSerializingInsts          134                       # count of temporary serializing insts renamed
system.switch_cpus.rename.skidInsts         300351543                       # count of insts added to the skid buffer
system.switch_cpus.memDep0.insertedLoads    346805540                       # Number of loads inserted to the mem dependence unit.
system.switch_cpus.memDep0.insertedStores    141856420                       # Number of stores inserted to the mem dependence unit.
system.switch_cpus.memDep0.conflictingLoads    193395429                       # Number of conflicting loads.
system.switch_cpus.memDep0.conflictingStores     95241575                       # Number of conflicting stores.
system.switch_cpus.iq.iqInstsAdded          756858133                       # Number of instructions added to the IQ (excludes non-spec)
system.switch_cpus.iq.iqNonSpecInstsAdded          228                       # Number of non-speculative instructions added to the IQ
system.switch_cpus.iq.iqInstsIssued         721034866                       # Number of instructions issued
system.switch_cpus.iq.iqSquashedInstsIssued         2669                       # Number of squashed instructions issued
system.switch_cpus.iq.iqSquashedInstsExamined     66949108                       # Number of squashed instructions iterated over during squash; mainly for profiling
system.switch_cpus.iq.iqSquashedOperandsExamined     58569500                       # Number of squashed operands that are examined and possibly removed from graph
system.switch_cpus.iq.iqSquashedNonSpecRemoved           51                       # Number of squashed non-spec instructions that were removed
system.switch_cpus.iq.issued_per_cycle::samples    438474954                       # Number of insts issued each cycle
system.switch_cpus.iq.issued_per_cycle::mean     1.644415                       # Number of insts issued each cycle
system.switch_cpus.iq.issued_per_cycle::stdev     1.232739                       # Number of insts issued each cycle
system.switch_cpus.iq.issued_per_cycle::underflows            0      0.00%      0.00% # Number of insts issued each cycle
system.switch_cpus.iq.issued_per_cycle::0     89251696     20.36%     20.36% # Number of insts issued each cycle
system.switch_cpus.iq.issued_per_cycle::1    122167090     27.86%     48.22% # Number of insts issued each cycle
system.switch_cpus.iq.issued_per_cycle::2    128197705     29.24%     77.45% # Number of insts issued each cycle
system.switch_cpus.iq.issued_per_cycle::3     55709139     12.71%     90.16% # Number of insts issued each cycle
system.switch_cpus.iq.issued_per_cycle::4     40584689      9.26%     99.42% # Number of insts issued each cycle
system.switch_cpus.iq.issued_per_cycle::5      2470058      0.56%     99.98% # Number of insts issued each cycle
system.switch_cpus.iq.issued_per_cycle::6         8960      0.00%     99.98% # Number of insts issued each cycle
system.switch_cpus.iq.issued_per_cycle::7        82793      0.02%    100.00% # Number of insts issued each cycle
system.switch_cpus.iq.issued_per_cycle::8         2824      0.00%    100.00% # Number of insts issued each cycle
system.switch_cpus.iq.issued_per_cycle::overflows            0      0.00%    100.00% # Number of insts issued each cycle
system.switch_cpus.iq.issued_per_cycle::min_value            0                       # Number of insts issued each cycle
system.switch_cpus.iq.issued_per_cycle::max_value            8                       # Number of insts issued each cycle
system.switch_cpus.iq.issued_per_cycle::total    438474954                       # Number of insts issued each cycle
system.switch_cpus.iq.fu_full::No_OpClass            0      0.00%      0.00% # attempts to use FU when none available
system.switch_cpus.iq.fu_full::IntAlu            4246      0.36%      0.36% # attempts to use FU when none available
system.switch_cpus.iq.fu_full::IntMult              0      0.00%      0.36% # attempts to use FU when none available
system.switch_cpus.iq.fu_full::IntDiv               0      0.00%      0.36% # attempts to use FU when none available
system.switch_cpus.iq.fu_full::FloatAdd             0      0.00%      0.36% # attempts to use FU when none available
system.switch_cpus.iq.fu_full::FloatCmp             0      0.00%      0.36% # attempts to use FU when none available
system.switch_cpus.iq.fu_full::FloatCvt             0      0.00%      0.36% # attempts to use FU when none available
system.switch_cpus.iq.fu_full::FloatMult          204      0.02%      0.37% # attempts to use FU when none available
system.switch_cpus.iq.fu_full::FloatDiv             4      0.00%      0.37% # attempts to use FU when none available
system.switch_cpus.iq.fu_full::FloatSqrt            0      0.00%      0.37% # attempts to use FU when none available
system.switch_cpus.iq.fu_full::SimdAdd              0      0.00%      0.37% # attempts to use FU when none available
system.switch_cpus.iq.fu_full::SimdAddAcc            0      0.00%      0.37% # attempts to use FU when none available
system.switch_cpus.iq.fu_full::SimdAlu              0      0.00%      0.37% # attempts to use FU when none available
system.switch_cpus.iq.fu_full::SimdCmp              0      0.00%      0.37% # attempts to use FU when none available
system.switch_cpus.iq.fu_full::SimdCvt              0      0.00%      0.37% # attempts to use FU when none available
system.switch_cpus.iq.fu_full::SimdMisc             0      0.00%      0.37% # attempts to use FU when none available
system.switch_cpus.iq.fu_full::SimdMult             0      0.00%      0.37% # attempts to use FU when none available
system.switch_cpus.iq.fu_full::SimdMultAcc            0      0.00%      0.37% # attempts to use FU when none available
system.switch_cpus.iq.fu_full::SimdShift            0      0.00%      0.37% # attempts to use FU when none available
system.switch_cpus.iq.fu_full::SimdShiftAcc            0      0.00%      0.37% # attempts to use FU when none available
system.switch_cpus.iq.fu_full::SimdSqrt             0      0.00%      0.37% # attempts to use FU when none available
system.switch_cpus.iq.fu_full::SimdFloatAdd            0      0.00%      0.37% # attempts to use FU when none available
system.switch_cpus.iq.fu_full::SimdFloatAlu            0      0.00%      0.37% # attempts to use FU when none available
system.switch_cpus.iq.fu_full::SimdFloatCmp            0      0.00%      0.37% # attempts to use FU when none available
system.switch_cpus.iq.fu_full::SimdFloatCvt            0      0.00%      0.37% # attempts to use FU when none available
system.switch_cpus.iq.fu_full::SimdFloatDiv            0      0.00%      0.37% # attempts to use FU when none available
system.switch_cpus.iq.fu_full::SimdFloatMisc            0      0.00%      0.37% # attempts to use FU when none available
system.switch_cpus.iq.fu_full::SimdFloatMult            0      0.00%      0.37% # attempts to use FU when none available
system.switch_cpus.iq.fu_full::SimdFloatMultAcc            0      0.00%      0.37% # attempts to use FU when none available
system.switch_cpus.iq.fu_full::SimdFloatSqrt            0      0.00%      0.37% # attempts to use FU when none available
system.switch_cpus.iq.fu_full::MemRead          84422      7.07%      7.45% # attempts to use FU when none available
system.switch_cpus.iq.fu_full::MemWrite       1104721     92.55%    100.00% # attempts to use FU when none available
system.switch_cpus.iq.fu_full::IprAccess            0      0.00%    100.00% # attempts to use FU when none available
system.switch_cpus.iq.fu_full::InstPrefetch            0      0.00%    100.00% # attempts to use FU when none available
system.switch_cpus.iq.FU_type_0::No_OpClass       158117      0.02%      0.02% # Type of FU issued
system.switch_cpus.iq.FU_type_0::IntAlu     216624417     30.04%     30.07% # Type of FU issued
system.switch_cpus.iq.FU_type_0::IntMult     35742637      4.96%     35.02% # Type of FU issued
system.switch_cpus.iq.FU_type_0::IntDiv             0      0.00%     35.02% # Type of FU issued
system.switch_cpus.iq.FU_type_0::FloatAdd       421295      0.06%     35.08% # Type of FU issued
system.switch_cpus.iq.FU_type_0::FloatCmp         2221      0.00%     35.08% # Type of FU issued
system.switch_cpus.iq.FU_type_0::FloatCvt       242903      0.03%     35.12% # Type of FU issued
system.switch_cpus.iq.FU_type_0::FloatMult        11616      0.00%     35.12% # Type of FU issued
system.switch_cpus.iq.FU_type_0::FloatDiv        79803      0.01%     35.13% # Type of FU issued
system.switch_cpus.iq.FU_type_0::FloatSqrt            0      0.00%     35.13% # Type of FU issued
system.switch_cpus.iq.FU_type_0::SimdAdd            0      0.00%     35.13% # Type of FU issued
system.switch_cpus.iq.FU_type_0::SimdAddAcc            0      0.00%     35.13% # Type of FU issued
system.switch_cpus.iq.FU_type_0::SimdAlu            0      0.00%     35.13% # Type of FU issued
system.switch_cpus.iq.FU_type_0::SimdCmp            0      0.00%     35.13% # Type of FU issued
system.switch_cpus.iq.FU_type_0::SimdCvt            0      0.00%     35.13% # Type of FU issued
system.switch_cpus.iq.FU_type_0::SimdMisc            0      0.00%     35.13% # Type of FU issued
system.switch_cpus.iq.FU_type_0::SimdMult            0      0.00%     35.13% # Type of FU issued
system.switch_cpus.iq.FU_type_0::SimdMultAcc            0      0.00%     35.13% # Type of FU issued
system.switch_cpus.iq.FU_type_0::SimdShift            0      0.00%     35.13% # Type of FU issued
system.switch_cpus.iq.FU_type_0::SimdShiftAcc            0      0.00%     35.13% # Type of FU issued
system.switch_cpus.iq.FU_type_0::SimdSqrt            0      0.00%     35.13% # Type of FU issued
system.switch_cpus.iq.FU_type_0::SimdFloatAdd            0      0.00%     35.13% # Type of FU issued
system.switch_cpus.iq.FU_type_0::SimdFloatAlu            0      0.00%     35.13% # Type of FU issued
system.switch_cpus.iq.FU_type_0::SimdFloatCmp            0      0.00%     35.13% # Type of FU issued
system.switch_cpus.iq.FU_type_0::SimdFloatCvt            0      0.00%     35.13% # Type of FU issued
system.switch_cpus.iq.FU_type_0::SimdFloatDiv            0      0.00%     35.13% # Type of FU issued
system.switch_cpus.iq.FU_type_0::SimdFloatMisc            0      0.00%     35.13% # Type of FU issued
system.switch_cpus.iq.FU_type_0::SimdFloatMult            0      0.00%     35.13% # Type of FU issued
system.switch_cpus.iq.FU_type_0::SimdFloatMultAcc            0      0.00%     35.13% # Type of FU issued
system.switch_cpus.iq.FU_type_0::SimdFloatSqrt            0      0.00%     35.13% # Type of FU issued
system.switch_cpus.iq.FU_type_0::MemRead    334567410     46.40%     81.53% # Type of FU issued
system.switch_cpus.iq.FU_type_0::MemWrite    133184447     18.47%    100.00% # Type of FU issued
system.switch_cpus.iq.FU_type_0::IprAccess            0      0.00%    100.00% # Type of FU issued
system.switch_cpus.iq.FU_type_0::InstPrefetch            0      0.00%    100.00% # Type of FU issued
system.switch_cpus.iq.FU_type_0::total      721034866                       # Type of FU issued
system.switch_cpus.iq.rate                   1.644239                       # Inst issue rate
system.switch_cpus.iq.fu_busy_cnt             1193597                       # FU busy when requested
system.switch_cpus.iq.fu_busy_rate           0.001655                       # FU busy rate (busy events/executed inst)
system.switch_cpus.iq.int_inst_queue_reads   1879237755                       # Number of integer instruction queue reads
system.switch_cpus.iq.int_inst_queue_writes    822574192                       # Number of integer instruction queue writes
system.switch_cpus.iq.int_inst_queue_wakeup_accesses    716956233                       # Number of integer instruction queue wakeup accesses
system.switch_cpus.iq.fp_inst_queue_reads      2503197                       # Number of floating instruction queue reads
system.switch_cpus.iq.fp_inst_queue_writes      1254504                       # Number of floating instruction queue writes
system.switch_cpus.iq.fp_inst_queue_wakeup_accesses      1251388                       # Number of floating instruction queue wakeup accesses
system.switch_cpus.iq.int_alu_accesses      720818644                       # Number of integer alu accesses
system.switch_cpus.iq.fp_alu_accesses         1251702                       # Number of floating point alu accesses
system.switch_cpus.iew.lsq.thread0.forwLoads    132496731                       # Number of loads that had data forwarded from stores
system.switch_cpus.iew.lsq.thread0.invAddrLoads            0                       # Number of loads ignored due to an invalid address
system.switch_cpus.iew.lsq.thread0.squashedLoads     32132173                       # Number of loads squashed
system.switch_cpus.iew.lsq.thread0.ignoredResponses          777                       # Number of memory responses ignored because the instruction is squashed
system.switch_cpus.iew.lsq.thread0.memOrderViolation        21464                       # Number of memory ordering violations
system.switch_cpus.iew.lsq.thread0.squashedStores     12413200                       # Number of stores squashed
system.switch_cpus.iew.lsq.thread0.invAddrSwpfs            0                       # Number of software prefetches ignored due to an invalid address
system.switch_cpus.iew.lsq.thread0.blockedLoads            0                       # Number of blocked loads due to partial load-store forwarding
system.switch_cpus.iew.lsq.thread0.rescheduledLoads            1                       # Number of loads that were rescheduled
system.switch_cpus.iew.lsq.thread0.cacheBlocked         1051                       # Number of times an access to memory failed due to the cache being blocked
system.switch_cpus.iew.iewIdleCycles                0                       # Number of cycles IEW is idle
system.switch_cpus.iew.iewSquashCycles        8691091                       # Number of cycles IEW is squashing
system.switch_cpus.iew.iewBlockCycles          166223                       # Number of cycles IEW is blocking
system.switch_cpus.iew.iewUnblockCycles         10178                       # Number of cycles IEW is unblocking
system.switch_cpus.iew.iewDispatchedInsts    756949830                       # Number of instructions dispatched to IQ
system.switch_cpus.iew.iewDispSquashedInsts         2946                       # Number of squashed instructions skipped by dispatch
system.switch_cpus.iew.iewDispLoadInsts     346805540                       # Number of dispatched load instructions
system.switch_cpus.iew.iewDispStoreInsts    141856420                       # Number of dispatched store instructions
system.switch_cpus.iew.iewDispNonSpecInsts          138                       # Number of dispatched non-speculative instructions
system.switch_cpus.iew.iewIQFullEvents           2122                       # Number of times the IQ has become full, causing a stall
system.switch_cpus.iew.iewLSQFullEvents          4129                       # Number of times the LSQ has become full, causing a stall
system.switch_cpus.iew.memOrderViolationEvents        21464                       # Number of memory order violations
system.switch_cpus.iew.predictedTakenIncorrect      1265693                       # Number of branches that were predicted taken incorrectly
system.switch_cpus.iew.predictedNotTakenIncorrect          578                       # Number of branches that were predicted not taken incorrectly
system.switch_cpus.iew.branchMispredicts      1266271                       # Number of branch mispredicts detected at execute
system.switch_cpus.iew.iewExecutedInsts     718400329                       # Number of executed instructions
system.switch_cpus.iew.iewExecLoadInsts     332020626                       # Number of load instructions executed
system.switch_cpus.iew.iewExecSquashedInsts      2634537                       # Number of squashed instructions skipped in execute
system.switch_cpus.iew.exec_swp                     0                       # number of swp insts executed
system.switch_cpus.iew.exec_nop                 91469                       # number of nop insts executed
system.switch_cpus.iew.exec_refs            465121633                       # number of memory reference insts executed
system.switch_cpus.iew.exec_branches         22018530                       # Number of branches executed
system.switch_cpus.iew.exec_stores          133101007                       # Number of stores executed
system.switch_cpus.iew.exec_rate             1.638231                       # Inst execution rate
system.switch_cpus.iew.wb_sent              718218702                       # cumulative count of insts sent to commit
system.switch_cpus.iew.wb_count             718207621                       # cumulative count of insts written-back
system.switch_cpus.iew.wb_producers         546610362                       # num instructions producing a value
system.switch_cpus.iew.wb_consumers         546935193                       # num instructions consuming a value
system.switch_cpus.iew.wb_penalized                 0                       # number of instrctions required to write to 'other' IQ
system.switch_cpus.iew.wb_rate               1.637792                       # insts written-back per cycle
system.switch_cpus.iew.wb_fanout             0.999406                       # average fanout of values written-back
system.switch_cpus.iew.wb_penalized_rate            0                       # fraction of instructions written-back that wrote to 'other' IQ
system.switch_cpus.commit.commitSquashedInsts     66953067                       # The number of squashed insts skipped by commit
system.switch_cpus.commit.commitNonSpecStalls          177                       # The number of times commit has been forced to stall to communicate backwards
system.switch_cpus.commit.branchMispredicts      1266108                       # The number of times a branch was mispredicted
system.switch_cpus.commit.committed_per_cycle::samples    429783863                       # Number of insts commited each cycle
system.switch_cpus.commit.committed_per_cycle::mean     1.605449                       # Number of insts commited each cycle
system.switch_cpus.commit.committed_per_cycle::stdev     2.318131                       # Number of insts commited each cycle
system.switch_cpus.commit.committed_per_cycle::underflows            0      0.00%      0.00% # Number of insts commited each cycle
system.switch_cpus.commit.committed_per_cycle::0    177455278     41.29%     41.29% # Number of insts commited each cycle
system.switch_cpus.commit.committed_per_cycle::1    137851715     32.07%     73.36% # Number of insts commited each cycle
system.switch_cpus.commit.committed_per_cycle::2     40107685      9.33%     82.70% # Number of insts commited each cycle
system.switch_cpus.commit.committed_per_cycle::3      2774699      0.65%     83.34% # Number of insts commited each cycle
system.switch_cpus.commit.committed_per_cycle::4        12108      0.00%     83.34% # Number of insts commited each cycle
system.switch_cpus.commit.committed_per_cycle::5     18897675      4.40%     87.74% # Number of insts commited each cycle
system.switch_cpus.commit.committed_per_cycle::6     17863922      4.16%     91.90% # Number of insts commited each cycle
system.switch_cpus.commit.committed_per_cycle::7     16681666      3.88%     95.78% # Number of insts commited each cycle
system.switch_cpus.commit.committed_per_cycle::8     18139115      4.22%    100.00% # Number of insts commited each cycle
system.switch_cpus.commit.committed_per_cycle::overflows            0      0.00%    100.00% # Number of insts commited each cycle
system.switch_cpus.commit.committed_per_cycle::min_value            0                       # Number of insts commited each cycle
system.switch_cpus.commit.committed_per_cycle::max_value            8                       # Number of insts commited each cycle
system.switch_cpus.commit.committed_per_cycle::total    429783863                       # Number of insts commited each cycle
system.switch_cpus.commit.committedInsts    689996103                       # Number of instructions committed
system.switch_cpus.commit.committedOps      689996103                       # Number of ops (including micro ops) committed
system.switch_cpus.commit.swp_count                 0                       # Number of s/w prefetches committed
system.switch_cpus.commit.refs              444116587                       # Number of memory references committed
system.switch_cpus.commit.loads             314673367                       # Number of loads committed
system.switch_cpus.commit.membars                  77                       # Number of memory barriers committed
system.switch_cpus.commit.branches           21928905                       # Number of branches committed
system.switch_cpus.commit.fp_insts            1249740                       # Number of committed floating point instructions.
system.switch_cpus.commit.int_insts         687968169                       # Number of committed integer instructions.
system.switch_cpus.commit.function_calls        81680                       # Number of function calls committed.
system.switch_cpus.commit.bw_lim_events      18139115                       # number cycles where commit BW limit reached
system.switch_cpus.commit.bw_limited                0                       # number of insts not committed due to BW limits
system.switch_cpus.rob.rob_reads           1168592410                       # The number of ROB reads
system.switch_cpus.rob.rob_writes          1522590160                       # The number of ROB writes
system.switch_cpus.timesIdled                     622                       # Number of times that the entire CPU went into an idle state and unscheduled itself
system.switch_cpus.idleCycles                   46981                       # Total number of cycles that the CPU has spent unscheduled due to idling
system.switch_cpus.committedInsts           689907100                       # Number of Instructions Simulated
system.switch_cpus.committedOps             689907100                       # Number of Ops (including micro ops) Simulated
system.switch_cpus.committedInsts_total     689907100                       # Number of Instructions Simulated
system.switch_cpus.cpi                       0.635625                       # CPI: Cycles Per Instruction
system.switch_cpus.cpi_total                 0.635625                       # CPI: Total CPI of All Threads
system.switch_cpus.ipc                       1.573256                       # IPC: Instructions Per Cycle
system.switch_cpus.ipc_total                 1.573256                       # IPC: Total IPC of All Threads
system.switch_cpus.int_regfile_reads       1021525949                       # number of integer regfile reads
system.switch_cpus.int_regfile_writes       562098926                       # number of integer regfile writes
system.switch_cpus.fp_regfile_reads            874902                       # number of floating regfile reads
system.switch_cpus.fp_regfile_writes           845944                       # number of floating regfile writes
system.switch_cpus.misc_regfile_reads          181220                       # number of misc regfile reads
system.switch_cpus.misc_regfile_writes          79211                       # number of misc regfile writes
system.l2.tags.replacements                        11                       # number of replacements
system.l2.tags.tagsinuse                  3593.776937                       # Cycle average of tags in use
system.l2.tags.total_refs                       19436                       # Total number of references to valid blocks.
system.l2.tags.sampled_refs                      3871                       # Sample count of references to valid blocks.
system.l2.tags.avg_refs                      5.020925                       # Average number of references to valid blocks.
system.l2.tags.warmup_cycle                         0                       # Cycle when the warmup percentage was hit.
system.l2.tags.occ_blocks::writebacks     2095.679475                       # Average occupied blocks per requestor
system.l2.tags.occ_blocks::switch_cpus.inst   378.935270                       # Average occupied blocks per requestor
system.l2.tags.occ_blocks::switch_cpus.data   883.161970                       # Average occupied blocks per requestor
system.l2.tags.occ_blocks::cpu.inst        188.000098                       # Average occupied blocks per requestor
system.l2.tags.occ_blocks::cpu.data         48.000124                       # Average occupied blocks per requestor
system.l2.tags.occ_percent::writebacks       0.255820                       # Average percentage of cache occupancy
system.l2.tags.occ_percent::switch_cpus.inst     0.046257                       # Average percentage of cache occupancy
system.l2.tags.occ_percent::switch_cpus.data     0.107808                       # Average percentage of cache occupancy
system.l2.tags.occ_percent::cpu.inst         0.022949                       # Average percentage of cache occupancy
system.l2.tags.occ_percent::cpu.data         0.005859                       # Average percentage of cache occupancy
system.l2.tags.occ_percent::total            0.438693                       # Average percentage of cache occupancy
system.l2.ReadReq_hits::switch_cpus.inst           55                       # number of ReadReq hits
system.l2.ReadReq_hits::switch_cpus.data         8157                       # number of ReadReq hits
system.l2.ReadReq_hits::total                    8212                       # number of ReadReq hits
system.l2.Writeback_hits::writebacks            13041                       # number of Writeback hits
system.l2.Writeback_hits::total                 13041                       # number of Writeback hits
system.l2.ReadExReq_hits::switch_cpus.data         3842                       # number of ReadExReq hits
system.l2.ReadExReq_hits::total                  3842                       # number of ReadExReq hits
system.l2.demand_hits::switch_cpus.inst            55                       # number of demand (read+write) hits
system.l2.demand_hits::switch_cpus.data         11999                       # number of demand (read+write) hits
system.l2.demand_hits::total                    12054                       # number of demand (read+write) hits
system.l2.overall_hits::switch_cpus.inst           55                       # number of overall hits
system.l2.overall_hits::switch_cpus.data        11999                       # number of overall hits
system.l2.overall_hits::total                   12054                       # number of overall hits
system.l2.ReadReq_misses::switch_cpus.inst          536                       # number of ReadReq misses
system.l2.ReadReq_misses::switch_cpus.data         1391                       # number of ReadReq misses
system.l2.ReadReq_misses::total                  1927                       # number of ReadReq misses
system.l2.ReadExReq_misses::switch_cpus.data         1791                       # number of ReadExReq misses
system.l2.ReadExReq_misses::total                1791                       # number of ReadExReq misses
system.l2.demand_misses::switch_cpus.inst          536                       # number of demand (read+write) misses
system.l2.demand_misses::switch_cpus.data         3182                       # number of demand (read+write) misses
system.l2.demand_misses::total                   3718                       # number of demand (read+write) misses
system.l2.overall_misses::switch_cpus.inst          536                       # number of overall misses
system.l2.overall_misses::switch_cpus.data         3182                       # number of overall misses
system.l2.overall_misses::total                  3718                       # number of overall misses
system.l2.ReadReq_miss_latency::switch_cpus.inst     35053500                       # number of ReadReq miss cycles
system.l2.ReadReq_miss_latency::switch_cpus.data     85494500                       # number of ReadReq miss cycles
system.l2.ReadReq_miss_latency::total       120548000                       # number of ReadReq miss cycles
system.l2.ReadExReq_miss_latency::switch_cpus.data    113002000                       # number of ReadExReq miss cycles
system.l2.ReadExReq_miss_latency::total     113002000                       # number of ReadExReq miss cycles
system.l2.demand_miss_latency::switch_cpus.inst     35053500                       # number of demand (read+write) miss cycles
system.l2.demand_miss_latency::switch_cpus.data    198496500                       # number of demand (read+write) miss cycles
system.l2.demand_miss_latency::total        233550000                       # number of demand (read+write) miss cycles
system.l2.overall_miss_latency::switch_cpus.inst     35053500                       # number of overall miss cycles
system.l2.overall_miss_latency::switch_cpus.data    198496500                       # number of overall miss cycles
system.l2.overall_miss_latency::total       233550000                       # number of overall miss cycles
system.l2.ReadReq_accesses::switch_cpus.inst          591                       # number of ReadReq accesses(hits+misses)
system.l2.ReadReq_accesses::switch_cpus.data         9548                       # number of ReadReq accesses(hits+misses)
system.l2.ReadReq_accesses::total               10139                       # number of ReadReq accesses(hits+misses)
system.l2.Writeback_accesses::writebacks        13041                       # number of Writeback accesses(hits+misses)
system.l2.Writeback_accesses::total             13041                       # number of Writeback accesses(hits+misses)
system.l2.ReadExReq_accesses::switch_cpus.data         5633                       # number of ReadExReq accesses(hits+misses)
system.l2.ReadExReq_accesses::total              5633                       # number of ReadExReq accesses(hits+misses)
system.l2.demand_accesses::switch_cpus.inst          591                       # number of demand (read+write) accesses
system.l2.demand_accesses::switch_cpus.data        15181                       # number of demand (read+write) accesses
system.l2.demand_accesses::total                15772                       # number of demand (read+write) accesses
system.l2.overall_accesses::switch_cpus.inst          591                       # number of overall (read+write) accesses
system.l2.overall_accesses::switch_cpus.data        15181                       # number of overall (read+write) accesses
system.l2.overall_accesses::total               15772                       # number of overall (read+write) accesses
system.l2.ReadReq_miss_rate::switch_cpus.inst     0.906937                       # miss rate for ReadReq accesses
system.l2.ReadReq_miss_rate::switch_cpus.data     0.145685                       # miss rate for ReadReq accesses
system.l2.ReadReq_miss_rate::total           0.190058                       # miss rate for ReadReq accesses
system.l2.ReadExReq_miss_rate::switch_cpus.data     0.317948                       # miss rate for ReadExReq accesses
system.l2.ReadExReq_miss_rate::total         0.317948                       # miss rate for ReadExReq accesses
system.l2.demand_miss_rate::switch_cpus.inst     0.906937                       # miss rate for demand accesses
system.l2.demand_miss_rate::switch_cpus.data     0.209604                       # miss rate for demand accesses
system.l2.demand_miss_rate::total            0.235734                       # miss rate for demand accesses
system.l2.overall_miss_rate::switch_cpus.inst     0.906937                       # miss rate for overall accesses
system.l2.overall_miss_rate::switch_cpus.data     0.209604                       # miss rate for overall accesses
system.l2.overall_miss_rate::total           0.235734                       # miss rate for overall accesses
system.l2.ReadReq_avg_miss_latency::switch_cpus.inst 65398.320896                       # average ReadReq miss latency
system.l2.ReadReq_avg_miss_latency::switch_cpus.data 61462.616822                       # average ReadReq miss latency
system.l2.ReadReq_avg_miss_latency::total 62557.343020                       # average ReadReq miss latency
system.l2.ReadExReq_avg_miss_latency::switch_cpus.data 63094.360692                       # average ReadExReq miss latency
system.l2.ReadExReq_avg_miss_latency::total 63094.360692                       # average ReadExReq miss latency
system.l2.demand_avg_miss_latency::switch_cpus.inst 65398.320896                       # average overall miss latency
system.l2.demand_avg_miss_latency::switch_cpus.data 62381.049654                       # average overall miss latency
system.l2.demand_avg_miss_latency::total 62816.030124                       # average overall miss latency
system.l2.overall_avg_miss_latency::switch_cpus.inst 65398.320896                       # average overall miss latency
system.l2.overall_avg_miss_latency::switch_cpus.data 62381.049654                       # average overall miss latency
system.l2.overall_avg_miss_latency::total 62816.030124                       # average overall miss latency
system.l2.blocked_cycles::no_mshrs                  0                       # number of cycles access was blocked
system.l2.blocked_cycles::no_targets                0                       # number of cycles access was blocked
system.l2.blocked::no_mshrs                         0                       # number of cycles access was blocked
system.l2.blocked::no_targets                       0                       # number of cycles access was blocked
system.l2.avg_blocked_cycles::no_mshrs            nan                       # average number of cycles each access was blocked
system.l2.avg_blocked_cycles::no_targets          nan                       # average number of cycles each access was blocked
system.l2.fast_writes                               0                       # number of fast writes performed
system.l2.cache_copies                              0                       # number of cache copies performed
system.l2.writebacks::writebacks                   10                       # number of writebacks
system.l2.writebacks::total                        10                       # number of writebacks
system.l2.ReadReq_mshr_misses::switch_cpus.inst          536                       # number of ReadReq MSHR misses
system.l2.ReadReq_mshr_misses::switch_cpus.data         1391                       # number of ReadReq MSHR misses
system.l2.ReadReq_mshr_misses::total             1927                       # number of ReadReq MSHR misses
system.l2.ReadExReq_mshr_misses::switch_cpus.data         1791                       # number of ReadExReq MSHR misses
system.l2.ReadExReq_mshr_misses::total           1791                       # number of ReadExReq MSHR misses
system.l2.demand_mshr_misses::switch_cpus.inst          536                       # number of demand (read+write) MSHR misses
system.l2.demand_mshr_misses::switch_cpus.data         3182                       # number of demand (read+write) MSHR misses
system.l2.demand_mshr_misses::total              3718                       # number of demand (read+write) MSHR misses
system.l2.overall_mshr_misses::switch_cpus.inst          536                       # number of overall MSHR misses
system.l2.overall_mshr_misses::switch_cpus.data         3182                       # number of overall MSHR misses
system.l2.overall_mshr_misses::total             3718                       # number of overall MSHR misses
system.l2.ReadReq_mshr_miss_latency::switch_cpus.inst     28903500                       # number of ReadReq MSHR miss cycles
system.l2.ReadReq_mshr_miss_latency::switch_cpus.data     69505500                       # number of ReadReq MSHR miss cycles
system.l2.ReadReq_mshr_miss_latency::total     98409000                       # number of ReadReq MSHR miss cycles
system.l2.ReadExReq_mshr_miss_latency::switch_cpus.data     92411000                       # number of ReadExReq MSHR miss cycles
system.l2.ReadExReq_mshr_miss_latency::total     92411000                       # number of ReadExReq MSHR miss cycles
system.l2.demand_mshr_miss_latency::switch_cpus.inst     28903500                       # number of demand (read+write) MSHR miss cycles
system.l2.demand_mshr_miss_latency::switch_cpus.data    161916500                       # number of demand (read+write) MSHR miss cycles
system.l2.demand_mshr_miss_latency::total    190820000                       # number of demand (read+write) MSHR miss cycles
system.l2.overall_mshr_miss_latency::switch_cpus.inst     28903500                       # number of overall MSHR miss cycles
system.l2.overall_mshr_miss_latency::switch_cpus.data    161916500                       # number of overall MSHR miss cycles
system.l2.overall_mshr_miss_latency::total    190820000                       # number of overall MSHR miss cycles
system.l2.ReadReq_mshr_miss_rate::switch_cpus.inst     0.906937                       # mshr miss rate for ReadReq accesses
system.l2.ReadReq_mshr_miss_rate::switch_cpus.data     0.145685                       # mshr miss rate for ReadReq accesses
system.l2.ReadReq_mshr_miss_rate::total      0.190058                       # mshr miss rate for ReadReq accesses
system.l2.ReadExReq_mshr_miss_rate::switch_cpus.data     0.317948                       # mshr miss rate for ReadExReq accesses
system.l2.ReadExReq_mshr_miss_rate::total     0.317948                       # mshr miss rate for ReadExReq accesses
system.l2.demand_mshr_miss_rate::switch_cpus.inst     0.906937                       # mshr miss rate for demand accesses
system.l2.demand_mshr_miss_rate::switch_cpus.data     0.209604                       # mshr miss rate for demand accesses
system.l2.demand_mshr_miss_rate::total       0.235734                       # mshr miss rate for demand accesses
system.l2.overall_mshr_miss_rate::switch_cpus.inst     0.906937                       # mshr miss rate for overall accesses
system.l2.overall_mshr_miss_rate::switch_cpus.data     0.209604                       # mshr miss rate for overall accesses
system.l2.overall_mshr_miss_rate::total      0.235734                       # mshr miss rate for overall accesses
system.l2.ReadReq_avg_mshr_miss_latency::switch_cpus.inst 53924.440299                       # average ReadReq mshr miss latency
system.l2.ReadReq_avg_mshr_miss_latency::switch_cpus.data 49968.008627                       # average ReadReq mshr miss latency
system.l2.ReadReq_avg_mshr_miss_latency::total 51068.500259                       # average ReadReq mshr miss latency
system.l2.ReadExReq_avg_mshr_miss_latency::switch_cpus.data 51597.431602                       # average ReadExReq mshr miss latency
system.l2.ReadExReq_avg_mshr_miss_latency::total 51597.431602                       # average ReadExReq mshr miss latency
system.l2.demand_avg_mshr_miss_latency::switch_cpus.inst 53924.440299                       # average overall mshr miss latency
system.l2.demand_avg_mshr_miss_latency::switch_cpus.data 50885.135135                       # average overall mshr miss latency
system.l2.demand_avg_mshr_miss_latency::total 51323.292093                       # average overall mshr miss latency
system.l2.overall_avg_mshr_miss_latency::switch_cpus.inst 53924.440299                       # average overall mshr miss latency
system.l2.overall_avg_mshr_miss_latency::switch_cpus.data 50885.135135                       # average overall mshr miss latency
system.l2.overall_avg_mshr_miss_latency::total 51323.292093                       # average overall mshr miss latency
system.l2.no_allocate_misses                        0                       # Number of misses that were no-allocate
system.tol2bus.throughput                     8409924                       # Throughput (bytes/s)
system.tol2bus.trans_dist::ReadReq              10139                       # Transaction distribution
system.tol2bus.trans_dist::ReadResp             10138                       # Transaction distribution
system.tol2bus.trans_dist::Writeback            13041                       # Transaction distribution
system.tol2bus.trans_dist::ReadExReq             5633                       # Transaction distribution
system.tol2bus.trans_dist::ReadExResp            5633                       # Transaction distribution
system.tol2bus.pkt_count_system.cpu.icache.mem_side         1181                       # Packet count per connected master and slave (bytes)
system.tol2bus.pkt_count_system.cpu.dcache.mem_side        43403                       # Packet count per connected master and slave (bytes)
system.tol2bus.pkt_count                        44584                       # Packet count per connected master and slave (bytes)
system.tol2bus.tot_pkt_size_system.cpu.icache.mem_side        37760                       # Cumulative packet size per connected master and slave (bytes)
system.tol2bus.tot_pkt_size_system.cpu.dcache.mem_side      1806208                       # Cumulative packet size per connected master and slave (bytes)
system.tol2bus.tot_pkt_size                   1843968                       # Cumulative packet size per connected master and slave (bytes)
system.tol2bus.data_through_bus               1843968                       # Total data (bytes)
system.tol2bus.snoop_data_through_bus               0                       # Total snoop data (bytes)
system.tol2bus.reqLayer0.occupancy           27447500                       # Layer occupancy (ticks)
[...]
system.cpu.icache.overall_mshr_hits::total          255                       # number of overall MSHR hits
system.cpu.icache.ReadReq_mshr_misses::switch_cpus.inst          591                       # number of ReadReq MSHR misses
system.cpu.icache.ReadReq_mshr_misses::total          591                       # number of ReadReq MSHR misses
system.cpu.icache.demand_mshr_misses::switch_cpus.inst          591                       # number of demand (read+write) MSHR misses
system.cpu.icache.demand_mshr_misses::total          591                       # number of demand (read+write) MSHR misses
system.cpu.icache.overall_mshr_misses::switch_cpus.inst          591                       # number of overall MSHR misses
system.cpu.icache.overall_mshr_misses::total          591                       # number of overall MSHR misses
system.cpu.icache.ReadReq_mshr_miss_latency::switch_cpus.inst     36197501                       # number of ReadReq MSHR miss cycles
system.cpu.icache.ReadReq_mshr_miss_latency::total     36197501                       # number of ReadReq MSHR miss cycles
system.cpu.icache.demand_mshr_miss_latency::switch_cpus.inst     36197501                       # number of demand (read+write) MSHR miss cycles
system.cpu.icache.demand_mshr_miss_latency::total     36197501                       # number of demand (read+write) MSHR miss cycles
system.cpu.icache.overall_mshr_miss_latency::switch_cpus.inst     36197501                       # number of overall MSHR miss cycles
system.cpu.icache.overall_mshr_miss_latency::total     36197501                       # number of overall MSHR miss cycles
system.cpu.icache.ReadReq_mshr_miss_rate::switch_cpus.inst     0.000009                       # mshr miss rate for ReadReq accesses
system.cpu.icache.ReadReq_mshr_miss_rate::total     0.000009                       # mshr miss rate for ReadReq accesses
system.cpu.icache.demand_mshr_miss_rate::switch_cpus.inst     0.000009                       # mshr miss rate for demand accesses
system.cpu.icache.demand_mshr_miss_rate::total     0.000009                       # mshr miss rate for demand accesses
system.cpu.icache.overall_mshr_miss_rate::switch_cpus.inst     0.000009                       # mshr miss rate for overall accesses
system.cpu.icache.overall_mshr_miss_rate::total     0.000009                       # mshr miss rate for overall accesses
system.cpu.icache.ReadReq_avg_mshr_miss_latency::switch_cpus.inst 61247.886633                       # average ReadReq mshr miss latency
system.cpu.icache.ReadReq_avg_mshr_miss_latency::total 61247.886633                       # average ReadReq mshr miss latency
system.cpu.icache.demand_avg_mshr_miss_latency::switch_cpus.inst 61247.886633                       # average overall mshr miss latency
system.cpu.icache.demand_avg_mshr_miss_latency::total 61247.886633                       # average overall mshr miss latency
system.cpu.icache.overall_avg_mshr_miss_latency::switch_cpus.inst 61247.886633                       # average overall mshr miss latency
system.cpu.icache.overall_avg_mshr_miss_latency::total 61247.886633                       # average overall mshr miss latency
system.cpu.icache.no_allocate_misses                0                       # Number of misses that were no-allocate
system.cpu.dcache.tags.replacements             14808                       # number of replacements
system.cpu.dcache.tags.tagsinuse           450.915183                       # Cycle average of tags in use
system.cpu.dcache.tags.total_refs           328932904                       # Total number of references to valid blocks.
system.cpu.dcache.tags.sampled_refs             15259                       # Sample count of references to valid blocks.
system.cpu.dcache.tags.avg_refs          21556.648797                       # Average number of references to valid blocks.
system.cpu.dcache.tags.warmup_cycle                 0                       # Cycle when the warmup percentage was hit.
system.cpu.dcache.tags.occ_blocks::switch_cpus.data   450.909630                       # Average occupied blocks per requestor
system.cpu.dcache.tags.occ_blocks::cpu.data     0.005553                       # Average occupied blocks per requestor
system.cpu.dcache.tags.occ_percent::switch_cpus.data     0.880683                       # Average percentage of cache occupancy
system.cpu.dcache.tags.occ_percent::cpu.data     0.000011                       # Average percentage of cache occupancy
system.cpu.dcache.tags.occ_percent::total     0.880694                       # Average percentage of cache occupancy
system.cpu.dcache.ReadReq_hits::switch_cpus.data    199503326                       # number of ReadReq hits
system.cpu.dcache.ReadReq_hits::total       199503326                       # number of ReadReq hits
system.cpu.dcache.WriteReq_hits::switch_cpus.data    129428788                       # number of WriteReq hits
system.cpu.dcache.WriteReq_hits::total      129428788                       # number of WriteReq hits
system.cpu.dcache.LoadLockedReq_hits::switch_cpus.data           71                       # number of LoadLockedReq hits
system.cpu.dcache.LoadLockedReq_hits::total           71                       # number of LoadLockedReq hits
system.cpu.dcache.StoreCondReq_hits::switch_cpus.data           77                       # number of StoreCondReq hits
system.cpu.dcache.StoreCondReq_hits::total           77                       # number of StoreCondReq hits
system.cpu.dcache.demand_hits::switch_cpus.data    328932114                       # number of demand (read+write) hits
system.cpu.dcache.demand_hits::total        328932114                       # number of demand (read+write) hits
system.cpu.dcache.overall_hits::switch_cpus.data    328932114                       # number of overall hits
system.cpu.dcache.overall_hits::total       328932114                       # number of overall hits
system.cpu.dcache.ReadReq_misses::switch_cpus.data        19420                       # number of ReadReq misses
system.cpu.dcache.ReadReq_misses::total         19420                       # number of ReadReq misses
system.cpu.dcache.WriteReq_misses::switch_cpus.data        14355                       # number of WriteReq misses
system.cpu.dcache.WriteReq_misses::total        14355                       # number of WriteReq misses
system.cpu.dcache.LoadLockedReq_misses::switch_cpus.data            7                       # number of LoadLockedReq misses
system.cpu.dcache.LoadLockedReq_misses::total            7                       # number of LoadLockedReq misses
system.cpu.dcache.demand_misses::switch_cpus.data        33775                       # number of demand (read+write) misses
system.cpu.dcache.demand_misses::total          33775                       # number of demand (read+write) misses
system.cpu.dcache.overall_misses::switch_cpus.data        33775                       # number of overall misses
system.cpu.dcache.overall_misses::total         33775                       # number of overall misses
system.cpu.dcache.ReadReq_miss_latency::switch_cpus.data    713457250                       # number of ReadReq miss cycles
system.cpu.dcache.ReadReq_miss_latency::total    713457250                       # number of ReadReq miss cycles
system.cpu.dcache.WriteReq_miss_latency::switch_cpus.data    658614566                       # number of WriteReq miss cycles
system.cpu.dcache.WriteReq_miss_latency::total    658614566                       # number of WriteReq miss cycles
system.cpu.dcache.LoadLockedReq_miss_latency::switch_cpus.data       171250                       # number of LoadLockedReq miss cycles
system.cpu.dcache.LoadLockedReq_miss_latency::total       171250                       # number of LoadLockedReq miss cycles
system.cpu.dcache.demand_miss_latency::switch_cpus.data   1372071816                       # number of demand (read+write) miss cycles
system.cpu.dcache.demand_miss_latency::total   1372071816                       # number of demand (read+write) miss cycles
system.cpu.dcache.overall_miss_latency::switch_cpus.data   1372071816                       # number of overall miss cycles
system.cpu.dcache.overall_miss_latency::total   1372071816                       # number of overall miss cycles
system.cpu.dcache.ReadReq_accesses::switch_cpus.data    199522746                       # number of ReadReq accesses(hits+misses)
system.cpu.dcache.ReadReq_accesses::total    199522746                       # number of ReadReq accesses(hits+misses)
system.cpu.dcache.WriteReq_accesses::switch_cpus.data    129443143                       # number of WriteReq accesses(hits+misses)
system.cpu.dcache.WriteReq_accesses::total    129443143                       # number of WriteReq accesses(hits+misses)
system.cpu.dcache.LoadLockedReq_accesses::switch_cpus.data           78                       # number of LoadLockedReq accesses(hits+misses)
system.cpu.dcache.LoadLockedReq_accesses::total           78                       # number of LoadLockedReq accesses(hits+misses)
system.cpu.dcache.StoreCondReq_accesses::switch_cpus.data           77                       # number of StoreCondReq accesses(hits+misses)
system.cpu.dcache.StoreCondReq_accesses::total           77                       # number of StoreCondReq accesses(hits+misses)
system.cpu.dcache.demand_accesses::switch_cpus.data    328965889                       # number of demand (read+write) accesses
system.cpu.dcache.demand_accesses::total    328965889                       # number of demand (read+write) accesses
system.cpu.dcache.overall_accesses::switch_cpus.data    328965889                       # number of overall (read+write) accesses
system.cpu.dcache.overall_accesses::total    328965889                       # number of overall (read+write) accesses
system.cpu.dcache.ReadReq_miss_rate::switch_cpus.data     0.000097                       # miss rate for ReadReq accesses
system.cpu.dcache.ReadReq_miss_rate::total     0.000097                       # miss rate for ReadReq accesses
system.cpu.dcache.WriteReq_miss_rate::switch_cpus.data     0.000111                       # miss rate for WriteReq accesses
system.cpu.dcache.WriteReq_miss_rate::total     0.000111                       # miss rate for WriteReq accesses
system.cpu.dcache.LoadLockedReq_miss_rate::switch_cpus.data     0.089744                       # miss rate for LoadLockedReq accesses
system.cpu.dcache.LoadLockedReq_miss_rate::total     0.089744                       # miss rate for LoadLockedReq accesses
system.cpu.dcache.demand_miss_rate::switch_cpus.data     0.000103                       # miss rate for demand accesses
system.cpu.dcache.demand_miss_rate::total     0.000103                       # miss rate for demand accesses
system.cpu.dcache.overall_miss_rate::switch_cpus.data     0.000103                       # miss rate for overall accesses
system.cpu.dcache.overall_miss_rate::total     0.000103                       # miss rate for overall accesses
system.cpu.dcache.ReadReq_avg_miss_latency::switch_cpus.data 36738.272400                       # average ReadReq miss latency
system.cpu.dcache.ReadReq_avg_miss_latency::total 36738.272400                       # average ReadReq miss latency
system.cpu.dcache.WriteReq_avg_miss_latency::switch_cpus.data 45880.499199                       # average WriteReq miss latency
system.cpu.dcache.WriteReq_avg_miss_latency::total 45880.499199                       # average WriteReq miss latency
system.cpu.dcache.LoadLockedReq_avg_miss_latency::switch_cpus.data 24464.285714                       # average LoadLockedReq miss latency
system.cpu.dcache.LoadLockedReq_avg_miss_latency::total 24464.285714                       # average LoadLockedReq miss latency
system.cpu.dcache.demand_avg_miss_latency::switch_cpus.data 40623.887964                       # average overall miss latency
system.cpu.dcache.demand_avg_miss_latency::total 40623.887964                       # average overall miss latency
system.cpu.dcache.overall_avg_miss_latency::switch_cpus.data 40623.887964                       # average overall miss latency
system.cpu.dcache.overall_avg_miss_latency::total 40623.887964                       # average overall miss latency
system.cpu.dcache.blocked_cycles::no_mshrs         5734                       # number of cycles access was blocked
system.cpu.dcache.blocked_cycles::no_targets            0                       # number of cycles access was blocked
system.cpu.dcache.blocked::no_mshrs               339                       # number of cycles access was blocked
system.cpu.dcache.blocked::no_targets               0                       # number of cycles access was blocked
system.cpu.dcache.avg_blocked_cycles::no_mshrs    16.914454                       # average number of cycles each access was blocked
system.cpu.dcache.avg_blocked_cycles::no_targets          nan                       # average number of cycles each access was blocked
system.cpu.dcache.fast_writes                       0                       # number of fast writes performed
system.cpu.dcache.cache_copies                      0                       # number of cache copies performed
system.cpu.dcache.writebacks::writebacks        13041                       # number of writebacks
system.cpu.dcache.writebacks::total             13041                       # number of writebacks
system.cpu.dcache.ReadReq_mshr_hits::switch_cpus.data         9875                       # number of ReadReq MSHR hits
system.cpu.dcache.ReadReq_mshr_hits::total         9875                       # number of ReadReq MSHR hits
system.cpu.dcache.WriteReq_mshr_hits::switch_cpus.data         8722                       # number of WriteReq MSHR hits
system.cpu.dcache.WriteReq_mshr_hits::total         8722                       # number of WriteReq MSHR hits
system.cpu.dcache.LoadLockedReq_mshr_hits::switch_cpus.data            4                       # number of LoadLockedReq MSHR hits
system.cpu.dcache.LoadLockedReq_mshr_hits::total            4                       # number of LoadLockedReq MSHR hits
system.cpu.dcache.demand_mshr_hits::switch_cpus.data        18597                       # number of demand (read+write) MSHR hits
system.cpu.dcache.demand_mshr_hits::total        18597                       # number of demand (read+write) MSHR hits
system.cpu.dcache.overall_mshr_hits::switch_cpus.data        18597                       # number of overall MSHR hits
system.cpu.dcache.overall_mshr_hits::total        18597                       # number of overall MSHR hits
system.cpu.dcache.ReadReq_mshr_misses::switch_cpus.data         9545                       # number of ReadReq MSHR misses
system.cpu.dcache.ReadReq_mshr_misses::total         9545                       # number of ReadReq MSHR misses
system.cpu.dcache.WriteReq_mshr_misses::switch_cpus.data         5633                       # number of WriteReq MSHR misses
system.cpu.dcache.WriteReq_mshr_misses::total         5633                       # number of WriteReq MSHR misses
system.cpu.dcache.LoadLockedReq_mshr_misses::switch_cpus.data            3                       # number of LoadLockedReq MSHR misses
system.cpu.dcache.LoadLockedReq_mshr_misses::total            3                       # number of LoadLockedReq MSHR misses
system.cpu.dcache.demand_mshr_misses::switch_cpus.data        15178                       # number of demand (read+write) MSHR misses
system.cpu.dcache.demand_mshr_misses::total        15178                       # number of demand (read+write) MSHR misses
system.cpu.dcache.overall_mshr_misses::switch_cpus.data        15178                       # number of overall MSHR misses
system.cpu.dcache.overall_mshr_misses::total        15178                       # number of overall MSHR misses
system.cpu.dcache.ReadReq_mshr_miss_latency::switch_cpus.data    177754500                       # number of ReadReq MSHR miss cycles
system.cpu.dcache.ReadReq_mshr_miss_latency::total    177754500                       # number of ReadReq MSHR miss cycles
system.cpu.dcache.WriteReq_mshr_miss_latency::switch_cpus.data    157151749                       # number of WriteReq MSHR miss cycles
system.cpu.dcache.WriteReq_mshr_miss_latency::total    157151749                       # number of WriteReq MSHR miss cycles
system.cpu.dcache.LoadLockedReq_mshr_miss_latency::switch_cpus.data        33000                       # number of LoadLockedReq MSHR miss cycles
system.cpu.dcache.LoadLockedReq_mshr_miss_latency::total        33000                       # number of LoadLockedReq MSHR miss cycles
system.cpu.dcache.demand_mshr_miss_latency::switch_cpus.data    334906249                       # number of demand (read+write) MSHR miss cycles
system.cpu.dcache.demand_mshr_miss_latency::total    334906249                       # number of demand (read+write) MSHR miss cycles
system.cpu.dcache.overall_mshr_miss_latency::switch_cpus.data    334906249                       # number of overall MSHR miss cycles
system.cpu.dcache.overall_mshr_miss_latency::total    334906249                       # number of overall MSHR miss cycles
system.cpu.dcache.ReadReq_mshr_miss_rate::switch_cpus.data     0.000048                       # mshr miss rate for ReadReq accesses
system.cpu.dcache.ReadReq_mshr_miss_rate::total     0.000048                       # mshr miss rate for ReadReq accesses
system.cpu.dcache.WriteReq_mshr_miss_rate::switch_cpus.data     0.000044                       # mshr miss rate for WriteReq accesses
system.cpu.dcache.WriteReq_mshr_miss_rate::total     0.000044                       # mshr miss rate for WriteReq accesses
system.cpu.dcache.LoadLockedReq_mshr_miss_rate::switch_cpus.data     0.038462                       # mshr miss rate for LoadLockedReq accesses
system.cpu.dcache.LoadLockedReq_mshr_miss_rate::total     0.038462                       # mshr miss rate for LoadLockedReq accesses
system.cpu.dcache.demand_mshr_miss_rate::switch_cpus.data     0.000046                       # mshr miss rate for demand accesses
system.cpu.dcache.demand_mshr_miss_rate::total     0.000046                       # mshr miss rate for demand accesses
system.cpu.dcache.overall_mshr_miss_rate::switch_cpus.data     0.000046                       # mshr miss rate for overall accesses
system.cpu.dcache.overall_mshr_miss_rate::total     0.000046                       # mshr miss rate for overall accesses
system.cpu.dcache.ReadReq_avg_mshr_miss_latency::switch_cpus.data 18622.786799                       # average ReadReq mshr miss latency
system.cpu.dcache.ReadReq_avg_mshr_miss_latency::total 18622.786799                       # average ReadReq mshr miss latency
system.cpu.dcache.WriteReq_avg_mshr_miss_latency::switch_cpus.data 27898.410971                       # average WriteReq mshr miss latency
system.cpu.dcache.WriteReq_avg_mshr_miss_latency::total 27898.410971                       # average WriteReq mshr miss latency
system.cpu.dcache.LoadLockedReq_avg_mshr_miss_latency::switch_cpus.data        11000                       # average LoadLockedReq mshr miss latency
system.cpu.dcache.LoadLockedReq_avg_mshr_miss_latency::total        11000                       # average LoadLockedReq mshr miss latency
system.cpu.dcache.demand_avg_mshr_miss_latency::switch_cpus.data 22065.242390                       # average overall mshr miss latency
system.cpu.dcache.demand_avg_mshr_miss_latency::total 22065.242390                       # average overall mshr miss latency
system.cpu.dcache.overall_avg_mshr_miss_latency::switch_cpus.data 22065.242390                       # average overall mshr miss latency
system.cpu.dcache.overall_avg_mshr_miss_latency::total 22065.242390                       # average overall mshr miss latency
system.cpu.dcache.no_allocate_misses                0                       # Number of misses that were no-allocate

---------- End Simulation Statistics   ----------
