Redirecting stdout to /home/majid/gem5/gem5-relax/tests/test-progs/susan/runs/sailboat-smoothing-480-1-relaxed-1/sailboat-smoothing-480-1-relaxed-1.out
Redirecting stderr to /home/majid/gem5/gem5-relax/tests/test-progs/susan/runs/sailboat-smoothing-480-1-relaxed-1/sailboat-smoothing-480-1-relaxed-1.err
gem5 Simulator System.  http://gem5.org
gem5 is copyrighted software; use the --copyright option for details.

gem5 compiled Apr 21 2014 11:01:47
gem5 started Apr 25 2014 03:48:22
gem5 executing on drg.ics.uci.edu
command line: /home/majid/gem5/gem5-relax/build/ALPHA/gem5.opt --redirect-stdout --redirect-stderr --stdout-file=/home/majid/gem5/gem5-relax/tests/test-progs/susan/runs/sailboat-smoothing-480-1-relaxed-1/sailboat-smoothing-480-1-relaxed-1.out --stderr-file=/home/majid/gem5/gem5-relax/tests/test-progs/susan/runs/sailboat-smoothing-480-1-relaxed-1/sailboat-smoothing-480-1-relaxed-1.err --outdir=/home/majid/gem5/gem5-relax/tests/test-progs/susan/runs/sailboat-smoothing-480-1-relaxed-1 --debug-flags=PseudoInst /home/majid/gem5/gem5-relax/configs/example/se_relax_cache.py --cpu-type=detailed --num-cpus=1 --sys-clock=2GHz --cpu-clock=2GHz --mem-type=ddr3_1600_x64 --mem-size=512MB --caches --l2cache --num-l2caches=1 --num-l3caches=0 --l1d_size=32kB --l1i_size=32kB --l2_size=512kB --l1d_assoc=4 --l1i_assoc=4 --l2_assoc=8 --cacheline_size=64 --fast-forward=3390 --maxinsts=100000000000000 --at-instruction --replacement_policy=random --l1_voltage_parameter_file=/home/majid/gem5/gem5-relax/ber_info/gem5params-L1-A.csv --l2_voltage_parameter_file=/home/majid/gem5/gem5-relax/ber_info/gem5params-L2-A.csv --vdd3_l1=480 --vdd2_l1=1000 --vdd1_l1=1000 --vdd3_l2=1000 --vdd2_l2=1000 --vdd1_l2=1000 --init_afb_l1=1 --init_afb_l2=0 --clean_ways_l1=1 --clean_ways_l2=8 -c /home/majid/gem5/gem5-relax/tests/test-progs/susan/bin/alpha/susan -o /home/majid/gem5/gem5-relax/tests/test-progs/susan/inputs/sailboat.pgm /home/majid/gem5/gem5-relax/tests/test-progs/susan/outputs/sailboat-smoothing-480-1-relaxed-1.pgm -s
Global frequency set at 1000000000000 ticks per second
info: Reading this cache's voltage parameter file...
info: Reading this cache's voltage parameter file...
info: Reading this cache's voltage parameter file...
info: Generating fault maps for this cache
info: Fault map generated
info: Dumping cache fault map for VDDs [480 mV, 1000 mV, 1000 mV]...
info: Block# = 0 ==>  0, 0, 0
info: Block# = 1 ==>  1, 0, 0
info: Block# = 2 ==>  3, 0, 0
info: Block# = 3 ==>  5, 0, 0
info: Block# = 4 ==>  0, 0, 0
info: Block# = 5 ==>  1, 0, 0
info: Block# = 6 ==>  3, 0, 0
info: Block# = 7 ==>  1, 0, 0
info: Block# = 8 ==>  0, 0, 0
info: Block# = 9 ==>  2, 0, 0
info: Block# = 10 ==>  1, 0, 0
info: Block# = 11 ==>  0, 0, 0
info: Block# = 12 ==>  0, 0, 0
info: Block# = 13 ==>  1, 0, 0
info: Block# = 14 ==>  3, 0, 0
info: Block# = 15 ==>  1, 0, 0
info: Block# = 16 ==>  0, 0, 0
info: Block# = 17 ==>  1, 0, 0
info: Block# = 18 ==>  4, 0, 0
info: Block# = 19 ==>  0, 0, 0
info: Block# = 20 ==>  0, 0, 0
info: Block# = 21 ==>  2, 0, 0
info: Block# = 22 ==>  1, 0, 0
info: Block# = 23 ==>  0, 0, 0
info: Block# = 24 ==>  0, 0, 0
info: Block# = 25 ==>  0, 0, 0
info: Block# = 26 ==>  1, 0, 0
info: Block# = 27 ==>  1, 0, 0
info: Block# = 28 ==>  0, 0, 0
info: Block# = 29 ==>  1, 0, 0
info: Block# = 30 ==>  1, 0, 0
info: Block# = 31 ==>  2, 0, 0
info: Block# = 32 ==>  0, 0, 0
info: Block# = 33 ==>  0, 0, 0
info: Block# = 34 ==>  0, 0, 0
info: Block# = 35 ==>  1, 0, 0
info: Block# = 36 ==>  0, 0, 0
info: Block# = 37 ==>  2, 0, 0
info: Block# = 38 ==>  3, 0, 0
info: Block# = 39 ==>  0, 0, 0
info: Block# = 40 ==>  0, 0, 0
info: Block# = 41 ==>  2, 0, 0
info: Block# = 42 ==>  0, 0, 0
info: Block# = 43 ==>  4, 0, 0
info: Block# = 44 ==>  0, 0, 0
info: Block# = 45 ==>  5, 0, 0
info: Block# = 46 ==>  2, 0, 0
info: Block# = 47 ==>  2, 0, 0
info: Block# = 48 ==>  0, 0, 0
info: Block# = 49 ==>  1, 0, 0
info: Block# = 50 ==>  2, 0, 0
info: Block# = 51 ==>  1, 0, 0
info: Block# = 52 ==>  0, 0, 0
info: Block# = 53 ==>  0, 0, 0
info: Block# = 54 ==>  0, 0, 0
info: Block# = 55 ==>  2, 0, 0
info: Block# = 56 ==>  0, 0, 0
info: Block# = 57 ==>  2, 0, 0
info: Block# = 58 ==>  3, 0, 0
info: Block# = 59 ==>  2, 0, 0
info: Block# = 60 ==>  0, 0, 0
info: Block# = 61 ==>  0, 0, 0
info: Block# = 62 ==>  4, 0, 0
info: Block# = 63 ==>  2, 0, 0
info: Block# = 64 ==>  0, 0, 0
info: Block# = 65 ==>  0, 0, 0
info: Block# = 66 ==>  1, 0, 0
info: Block# = 67 ==>  3, 0, 0
info: Block# = 68 ==>  0, 0, 0
info: Block# = 69 ==>  0, 0, 0
info: Block# = 70 ==>  1, 0, 0
info: Block# = 71 ==>  3, 0, 0
info: Block# = 72 ==>  0, 0, 0
info: Block# = 73 ==>  2, 0, 0
info: Block# = 74 ==>  3, 0, 0
info: Block# = 75 ==>  1, 0, 0
info: Block# = 76 ==>  0, 0, 0
info: Block# = 77 ==>  2, 0, 0
info: Block# = 78 ==>  0, 0, 0
info: Block# = 79 ==>  2, 0, 0
info: Block# = 80 ==>  0, 0, 0
info: Block# = 81 ==>  3, 0, 0
info: Block# = 82 ==>  2, 0, 0
info: Block# = 83 ==>  4, 0, 0
info: Block# = 84 ==>  0, 0, 0
info: Block# = 85 ==>  1, 0, 0
info: Block# = 86 ==>  4, 0, 0
info: Block# = 87 ==>  0, 0, 0
info: Block# = 88 ==>  0, 0, 0
info: Block# = 89 ==>  1, 0, 0
info: Block# = 90 ==>  5, 0, 0
info: Block# = 91 ==>  1, 0, 0
info: Block# = 92 ==>  0, 0, 0
info: Block# = 93 ==>  2, 0, 0
info: Block# = 94 ==>  2, 0, 0
info: Block# = 95 ==>  0, 0, 0
info: Block# = 96 ==>  0, 0, 0
info: Block# = 97 ==>  1, 0, 0
info: Block# = 98 ==>  1, 0, 0
info: Block# = 99 ==>  0, 0, 0
info: Block# = 100 ==>  0, 0, 0
info: Block# = 101 ==>  1, 0, 0
info: Block# = 102 ==>  3, 0, 0
info: Block# = 103 ==>  4, 0, 0
info: Block# = 104 ==>  0, 0, 0
info: Block# = 105 ==>  0, 0, 0
info: Block# = 106 ==>  2, 0, 0
info: Block# = 107 ==>  0, 0, 0
info: Block# = 108 ==>  0, 0, 0
info: Block# = 109 ==>  1, 0, 0
info: Block# = 110 ==>  2, 0, 0
info: Block# = 111 ==>  1, 0, 0
info: Block# = 112 ==>  0, 0, 0
info: Block# = 113 ==>  2, 0, 0
info: Block# = 114 ==>  1, 0, 0
info: Block# = 115 ==>  0, 0, 0
info: Block# = 116 ==>  0, 0, 0
info: Block# = 117 ==>  0, 0, 0
info: Block# = 118 ==>  1, 0, 0
info: Block# = 119 ==>  0, 0, 0
info: Block# = 120 ==>  0, 0, 0
info: Block# = 121 ==>  5, 0, 0
info: Block# = 122 ==>  2, 0, 0
info: Block# = 123 ==>  1, 0, 0
info: Block# = 124 ==>  0, 0, 0
info: Block# = 125 ==>  1, 0, 0
info: Block# = 126 ==>  2, 0, 0
info: Block# = 127 ==>  4, 0, 0
info: Block# = 128 ==>  0, 0, 0
info: Block# = 129 ==>  1, 0, 0
info: Block# = 130 ==>  0, 0, 0
info: Block# = 131 ==>  3, 0, 0
info: Block# = 132 ==>  0, 0, 0
info: Block# = 133 ==>  1, 0, 0
info: Block# = 134 ==>  1, 0, 0
info: Block# = 135 ==>  4, 0, 0
info: Block# = 136 ==>  0, 0, 0
info: Block# = 137 ==>  2, 0, 0
info: Block# = 138 ==>  2, 0, 0
info: Block# = 139 ==>  5, 0, 0
info: Block# = 140 ==>  0, 0, 0
info: Block# = 141 ==>  3, 0, 0
info: Block# = 142 ==>  0, 0, 0
info: Block# = 143 ==>  5, 0, 0
info: Block# = 144 ==>  0, 0, 0
info: Block# = 145 ==>  4, 0, 0
info: Block# = 146 ==>  0, 0, 0
info: Block# = 147 ==>  4, 0, 0
info: Block# = 148 ==>  0, 0, 0
info: Block# = 149 ==>  1, 0, 0
info: Block# = 150 ==>  2, 0, 0
info: Block# = 151 ==>  8, 0, 0
info: Block# = 152 ==>  0, 0, 0
info: Block# = 153 ==>  0, 0, 0
info: Block# = 154 ==>  0, 0, 0
info: Block# = 155 ==>  1, 0, 0
info: Block# = 156 ==>  0, 0, 0
info: Block# = 157 ==>  4, 0, 0
info: Block# = 158 ==>  1, 0, 0
info: Block# = 159 ==>  1, 0, 0
info: Block# = 160 ==>  0, 0, 0
info: Block# = 161 ==>  1, 0, 0
info: Block# = 162 ==>  3, 0, 0
info: Block# = 163 ==>  1, 0, 0
info: Block# = 164 ==>  0, 0, 0
info: Block# = 165 ==>  0, 0, 0
info: Block# = 166 ==>  1, 0, 0
info: Block# = 167 ==>  2, 0, 0
info: Block# = 168 ==>  0, 0, 0
info: Block# = 169 ==>  2, 0, 0
info: Block# = 170 ==>  0, 0, 0
info: Block# = 171 ==>  1, 0, 0
info: Block# = 172 ==>  0, 0, 0
info: Block# = 173 ==>  0, 0, 0
info: Block# = 174 ==>  1, 0, 0
info: Block# = 175 ==>  2, 0, 0
info: Block# = 176 ==>  0, 0, 0
info: Block# = 177 ==>  1, 0, 0
info: Block# = 178 ==>  4, 0, 0
info: Block# = 179 ==>  3, 0, 0
info: Block# = 180 ==>  0, 0, 0
info: Block# = 181 ==>  2, 0, 0
info: Block# = 182 ==>  0, 0, 0
info: Block# = 183 ==>  1, 0, 0
info: Block# = 184 ==>  0, 0, 0
info: Block# = 185 ==>  0, 0, 0
info: Block# = 186 ==>  2, 0, 0
info: Block# = 187 ==>  1, 0, 0
info: Block# = 188 ==>  0, 0, 0
info: Block# = 189 ==>  1, 0, 0
info: Block# = 190 ==>  0, 0, 0
info: Block# = 191 ==>  1, 0, 0
info: Block# = 192 ==>  0, 0, 0
info: Block# = 193 ==>  2, 0, 0
info: Block# = 194 ==>  2, 0, 0
info: Block# = 195 ==>  0, 0, 0
info: Block# = 196 ==>  0, 0, 0
info: Block# = 197 ==>  1, 0, 0
info: Block# = 198 ==>  2, 0, 0
info: Block# = 199 ==>  2, 0, 0
info: Block# = 200 ==>  0, 0, 0
info: Block# = 201 ==>  0, 0, 0
info: Block# = 202 ==>  1, 0, 0
info: Block# = 203 ==>  2, 0, 0
info: Block# = 204 ==>  0, 0, 0
info: Block# = 205 ==>  4, 0, 0
info: Block# = 206 ==>  2, 0, 0
info: Block# = 207 ==>  1, 0, 0
info: Block# = 208 ==>  0, 0, 0
info: Block# = 209 ==>  3, 0, 0
info: Block# = 210 ==>  0, 0, 0
info: Block# = 211 ==>  0, 0, 0
info: Block# = 212 ==>  0, 0, 0
info: Block# = 213 ==>  2, 0, 0
info: Block# = 214 ==>  2, 0, 0
info: Block# = 215 ==>  1, 0, 0
info: Block# = 216 ==>  0, 0, 0
info: Block# = 217 ==>  1, 0, 0
info: Block# = 218 ==>  5, 0, 0
info: Block# = 219 ==>  0, 0, 0
info: Block# = 220 ==>  0, 0, 0
info: Block# = 221 ==>  4, 0, 0
info: Block# = 222 ==>  2, 0, 0
info: Block# = 223 ==>  2, 0, 0
info: Block# = 224 ==>  0, 0, 0
info: Block# = 225 ==>  2, 0, 0
info: Block# = 226 ==>  1, 0, 0
info: Block# = 227 ==>  3, 0, 0
info: Block# = 228 ==>  0, 0, 0
info: Block# = 229 ==>  1, 0, 0
info: Block# = 230 ==>  1, 0, 0
info: Block# = 231 ==>  1, 0, 0
info: Block# = 232 ==>  0, 0, 0
info: Block# = 233 ==>  3, 0, 0
info: Block# = 234 ==>  1, 0, 0
info: Block# = 235 ==>  2, 0, 0
info: Block# = 236 ==>  0, 0, 0
info: Block# = 237 ==>  2, 0, 0
info: Block# = 238 ==>  5, 0, 0
info: Block# = 239 ==>  1, 0, 0
info: Block# = 240 ==>  0, 0, 0
info: Block# = 241 ==>  4, 0, 0
info: Block# = 242 ==>  2, 0, 0
info: Block# = 243 ==>  3, 0, 0
info: Block# = 244 ==>  0, 0, 0
info: Block# = 245 ==>  2, 0, 0
info: Block# = 246 ==>  1, 0, 0
info: Block# = 247 ==>  3, 0, 0
info: Block# = 248 ==>  0, 0, 0
info: Block# = 249 ==>  0, 0, 0
info: Block# = 250 ==>  1, 0, 0
info: Block# = 251 ==>  2, 0, 0
info: Block# = 252 ==>  0, 0, 0
info: Block# = 253 ==>  2, 0, 0
info: Block# = 254 ==>  1, 0, 0
info: Block# = 255 ==>  3, 0, 0
info: Block# = 256 ==>  0, 0, 0
info: Block# = 257 ==>  4, 0, 0
info: Block# = 258 ==>  1, 0, 0
info: Block# = 259 ==>  0, 0, 0
info: Block# = 260 ==>  0, 0, 0
info: Block# = 261 ==>  1, 0, 0
info: Block# = 262 ==>  3, 0, 0
info: Block# = 263 ==>  1, 0, 0
info: Block# = 264 ==>  0, 0, 0
info: Block# = 265 ==>  0, 0, 0
info: Block# = 266 ==>  1, 0, 0
info: Block# = 267 ==>  3, 0, 0
info: Block# = 268 ==>  0, 0, 0
info: Block# = 269 ==>  2, 0, 0
info: Block# = 270 ==>  1, 0, 0
info: Block# = 271 ==>  4, 0, 0
info: Block# = 272 ==>  0, 0, 0
info: Block# = 273 ==>  2, 0, 0
info: Block# = 274 ==>  1, 0, 0
info: Block# = 275 ==>  0, 0, 0
info: Block# = 276 ==>  0, 0, 0
info: Block# = 277 ==>  2, 0, 0
info: Block# = 278 ==>  2, 0, 0
info: Block# = 279 ==>  2, 0, 0
info: Block# = 280 ==>  0, 0, 0
info: Block# = 281 ==>  2, 0, 0
info: Block# = 282 ==>  4, 0, 0
info: Block# = 283 ==>  1, 0, 0
info: Block# = 284 ==>  0, 0, 0
info: Block# = 285 ==>  2, 0, 0
info: Block# = 286 ==>  3, 0, 0
info: Block# = 287 ==>  1, 0, 0
info: Block# = 288 ==>  0, 0, 0
info: Block# = 289 ==>  0, 0, 0
info: Block# = 290 ==>  3, 0, 0
info: Block# = 291 ==>  1, 0, 0
info: Block# = 292 ==>  0, 0, 0
info: Block# = 293 ==>  2, 0, 0
info: Block# = 294 ==>  0, 0, 0
info: Block# = 295 ==>  0, 0, 0
info: Block# = 296 ==>  0, 0, 0
info: Block# = 297 ==>  1, 0, 0
info: Block# = 298 ==>  0, 0, 0
info: Block# = 299 ==>  3, 0, 0
info: Block# = 300 ==>  0, 0, 0
info: Block# = 301 ==>  1, 0, 0
info: Block# = 302 ==>  0, 0, 0
info: Block# = 303 ==>  5, 0, 0
info: Block# = 304 ==>  0, 0, 0
info: Block# = 305 ==>  2, 0, 0
info: Block# = 306 ==>  5, 0, 0
info: Block# = 307 ==>  1, 0, 0
info: Block# = 308 ==>  0, 0, 0
info: Block# = 309 ==>  0, 0, 0
info: Block# = 310 ==>  2, 0, 0
info: Block# = 311 ==>  1, 0, 0
info: Block# = 312 ==>  0, 0, 0
info: Block# = 313 ==>  2, 0, 0
info: Block# = 314 ==>  1, 0, 0
info: Block# = 315 ==>  1, 0, 0
info: Block# = 316 ==>  0, 0, 0
info: Block# = 317 ==>  2, 0, 0
info: Block# = 318 ==>  1, 0, 0
info: Block# = 319 ==>  2, 0, 0
info: Block# = 320 ==>  0, 0, 0
info: Block# = 321 ==>  1, 0, 0
info: Block# = 322 ==>  2, 0, 0
info: Block# = 323 ==>  0, 0, 0
info: Block# = 324 ==>  0, 0, 0
info: Block# = 325 ==>  0, 0, 0
info: Block# = 326 ==>  1, 0, 0
info: Block# = 327 ==>  2, 0, 0
info: Block# = 328 ==>  0, 0, 0
info: Block# = 329 ==>  2, 0, 0
info: Block# = 330 ==>  4, 0, 0
info: Block# = 331 ==>  2, 0, 0
info: Block# = 332 ==>  0, 0, 0
info: Block# = 333 ==>  0, 0, 0
info: Block# = 334 ==>  1, 0, 0
info: Block# = 335 ==>  0, 0, 0
info: Block# = 336 ==>  0, 0, 0
info: Block# = 337 ==>  1, 0, 0
info: Block# = 338 ==>  3, 0, 0
info: Block# = 339 ==>  4, 0, 0
info: Block# = 340 ==>  0, 0, 0
info: Block# = 341 ==>  1, 0, 0
info: Block# = 342 ==>  0, 0, 0
info: Block# = 343 ==>  1, 0, 0
info: Block# = 344 ==>  0, 0, 0
info: Block# = 345 ==>  3, 0, 0
info: Block# = 346 ==>  3, 0, 0
info: Block# = 347 ==>  2, 0, 0
info: Block# = 348 ==>  0, 0, 0
info: Block# = 349 ==>  2, 0, 0
info: Block# = 350 ==>  1, 0, 0
info: Block# = 351 ==>  3, 0, 0
info: Block# = 352 ==>  0, 0, 0
info: Block# = 353 ==>  1, 0, 0
info: Block# = 354 ==>  1, 0, 0
info: Block# = 355 ==>  3, 0, 0
info: Block# = 356 ==>  0, 0, 0
info: Block# = 357 ==>  2, 0, 0
info: Block# = 358 ==>  1, 0, 0
info: Block# = 359 ==>  1, 0, 0
info: Block# = 360 ==>  0, 0, 0
info: Block# = 361 ==>  1, 0, 0
info: Block# = 362 ==>  3, 0, 0
info: Block# = 363 ==>  3, 0, 0
info: Block# = 364 ==>  0, 0, 0
info: Block# = 365 ==>  2, 0, 0
info: Block# = 366 ==>  2, 0, 0
info: Block# = 367 ==>  0, 0, 0
info: Block# = 368 ==>  0, 0, 0
info: Block# = 369 ==>  1, 0, 0
info: Block# = 370 ==>  1, 0, 0
info: Block# = 371 ==>  3, 0, 0
info: Block# = 372 ==>  0, 0, 0
info: Block# = 373 ==>  1, 0, 0
info: Block# = 374 ==>  1, 0, 0
info: Block# = 375 ==>  3, 0, 0
info: Block# = 376 ==>  0, 0, 0
info: Block# = 377 ==>  0, 0, 0
info: Block# = 378 ==>  1, 0, 0
info: Block# = 379 ==>  2, 0, 0
info: Block# = 380 ==>  0, 0, 0
info: Block# = 381 ==>  3, 0, 0
info: Block# = 382 ==>  0, 0, 0
info: Block# = 383 ==>  2, 0, 0
info: Block# = 384 ==>  0, 0, 0
info: Block# = 385 ==>  2, 0, 0
info: Block# = 386 ==>  2, 0, 0
info: Block# = 387 ==>  1, 0, 0
info: Block# = 388 ==>  0, 0, 0
info: Block# = 389 ==>  1, 0, 0
info: Block# = 390 ==>  1, 0, 0
info: Block# = 391 ==>  1, 0, 0
info: Block# = 392 ==>  0, 0, 0
info: Block# = 393 ==>  0, 0, 0
info: Block# = 394 ==>  4, 0, 0
info: Block# = 395 ==>  1, 0, 0
info: Block# = 396 ==>  0, 0, 0
info: Block# = 397 ==>  1, 0, 0
info: Block# = 398 ==>  3, 0, 0
info: Block# = 399 ==>  4, 0, 0
info: Block# = 400 ==>  0, 0, 0
info: Block# = 401 ==>  2, 0, 0
info: Block# = 402 ==>  0, 0, 0
info: Block# = 403 ==>  1, 0, 0
info: Block# = 404 ==>  0, 0, 0
info: Block# = 405 ==>  1, 0, 0
info: Block# = 406 ==>  1, 0, 0
info: Block# = 407 ==>  1, 0, 0
info: Block# = 408 ==>  0, 0, 0
info: Block# = 409 ==>  4, 0, 0
info: Block# = 410 ==>  0, 0, 0
info: Block# = 411 ==>  1, 0, 0
info: Block# = 412 ==>  0, 0, 0
info: Block# = 413 ==>  2, 0, 0
info: Block# = 414 ==>  0, 0, 0
info: Block# = 415 ==>  1, 0, 0
info: Block# = 416 ==>  0, 0, 0
info: Block# = 417 ==>  5, 0, 0
info: Block# = 418 ==>  3, 0, 0
info: Block# = 419 ==>  2, 0, 0
info: Block# = 420 ==>  0, 0, 0
info: Block# = 421 ==>  2, 0, 0
info: Block# = 422 ==>  0, 0, 0
info: Block# = 423 ==>  2, 0, 0
info: Block# = 424 ==>  0, 0, 0
info: Block# = 425 ==>  0, 0, 0
info: Block# = 426 ==>  1, 0, 0
info: Block# = 427 ==>  2, 0, 0
info: Block# = 428 ==>  0, 0, 0
info: Block# = 429 ==>  2, 0, 0
info: Block# = 430 ==>  1, 0, 0
info: Block# = 431 ==>  2, 0, 0
info: Block# = 432 ==>  0, 0, 0
info: Block# = 433 ==>  4, 0, 0
info: Block# = 434 ==>  1, 0, 0
info: Block# = 435 ==>  0, 0, 0
info: Block# = 436 ==>  0, 0, 0
info: Block# = 437 ==>  0, 0, 0
info: Block# = 438 ==>  1, 0, 0
info: Block# = 439 ==>  3, 0, 0
info: Block# = 440 ==>  0, 0, 0
info: Block# = 441 ==>  2, 0, 0
info: Block# = 442 ==>  2, 0, 0
info: Block# = 443 ==>  3, 0, 0
info: Block# = 444 ==>  0, 0, 0
info: Block# = 445 ==>  0, 0, 0
info: Block# = 446 ==>  3, 0, 0
info: Block# = 447 ==>  2, 0, 0
info: Block# = 448 ==>  0, 0, 0
info: Block# = 449 ==>  0, 0, 0
info: Block# = 450 ==>  4, 0, 0
info: Block# = 451 ==>  2, 0, 0
info: Block# = 452 ==>  0, 0, 0
info: Block# = 453 ==>  1, 0, 0
info: Block# = 454 ==>  0, 0, 0
info: Block# = 455 ==>  0, 0, 0
info: Block# = 456 ==>  0, 0, 0
info: Block# = 457 ==>  1, 0, 0
info: Block# = 458 ==>  0, 0, 0
info: Block# = 459 ==>  1, 0, 0
info: Block# = 460 ==>  0, 0, 0
info: Block# = 461 ==>  3, 0, 0
info: Block# = 462 ==>  0, 0, 0
info: Block# = 463 ==>  1, 0, 0
info: Block# = 464 ==>  0, 0, 0
info: Block# = 465 ==>  3, 0, 0
info: Block# = 466 ==>  3, 0, 0
info: Block# = 467 ==>  5, 0, 0
info: Block# = 468 ==>  0, 0, 0
info: Block# = 469 ==>  2, 0, 0
info: Block# = 470 ==>  0, 0, 0
info: Block# = 471 ==>  1, 0, 0
info: Block# = 472 ==>  0, 0, 0
info: Block# = 473 ==>  2, 0, 0
info: Block# = 474 ==>  2, 0, 0
info: Block# = 475 ==>  2, 0, 0
info: Block# = 476 ==>  0, 0, 0
info: Block# = 477 ==>  0, 0, 0
info: Block# = 478 ==>  0, 0, 0
info: Block# = 479 ==>  1, 0, 0
info: Block# = 480 ==>  0, 0, 0
info: Block# = 481 ==>  1, 0, 0
info: Block# = 482 ==>  0, 0, 0
info: Block# = 483 ==>  4, 0, 0
info: Block# = 484 ==>  0, 0, 0
info: Block# = 485 ==>  4, 0, 0
info: Block# = 486 ==>  3, 0, 0
info: Block# = 487 ==>  1, 0, 0
info: Block# = 488 ==>  0, 0, 0
info: Block# = 489 ==>  0, 0, 0
info: Block# = 490 ==>  3, 0, 0
info: Block# = 491 ==>  2, 0, 0
info: Block# = 492 ==>  0, 0, 0
info: Block# = 493 ==>  2, 0, 0
info: Block# = 494 ==>  3, 0, 0
info: Block# = 495 ==>  1, 0, 0
info: Block# = 496 ==>  0, 0, 0
info: Block# = 497 ==>  0, 0, 0
info: Block# = 498 ==>  1, 0, 0
info: Block# = 499 ==>  2, 0, 0
info: Block# = 500 ==>  0, 0, 0
info: Block# = 501 ==>  2, 0, 0
info: Block# = 502 ==>  2, 0, 0
info: Block# = 503 ==>  1, 0, 0
info: Block# = 504 ==>  0, 0, 0
info: Block# = 505 ==>  2, 0, 0
info: Block# = 506 ==>  0, 0, 0
info: Block# = 507 ==>  2, 0, 0
info: Block# = 508 ==>  0, 0, 0
info: Block# = 509 ==>  1, 0, 0
info: Block# = 510 ==>  5, 0, 0
info: Block# = 511 ==>  0, 0, 0
info: Block [0][2] disabled and invalidated 
info: Block [0][3] disabled and invalidated 
info: Block [1][2] disabled and invalidated 
info: Block [2][1] disabled and invalidated 
info: Block [3][2] disabled and invalidated 
info: Block [4][2] disabled and invalidated 
info: Block [5][1] disabled and invalidated 
info: Block [7][3] disabled and invalidated 
info: Block [9][1] disabled and invalidated 
info: Block [9][2] disabled and invalidated 
info: Block [10][1] disabled and invalidated 
info: Block [10][3] disabled and invalidated 
info: Block [11][1] disabled and invalidated 
info: Block [11][2] disabled and invalidated 
info: Block [11][3] disabled and invalidated 
info: Block [12][2] disabled and invalidated 
info: Block [13][3] disabled and invalidated 
info: Block [14][1] disabled and invalidated 
info: Block [14][2] disabled and invalidated 
info: Block [14][3] disabled and invalidated 
info: Block [15][2] disabled and invalidated 
info: Block [15][3] disabled and invalidated 
info: Block [16][3] disabled and invalidated 
info: Block [17][3] disabled and invalidated 
info: Block [18][1] disabled and invalidated 
info: Block [18][2] disabled and invalidated 
info: Block [19][1] disabled and invalidated 
info: Block [19][3] disabled and invalidated 
info: Block [20][1] disabled and invalidated 
info: Block [20][2] disabled and invalidated 
info: Block [20][3] disabled and invalidated 
info: Block [21][2] disabled and invalidated 
info: Block [22][2] disabled and invalidated 
info: Block [23][1] disabled and invalidated 
info: Block [23][2] disabled and invalidated 
info: Block [25][2] disabled and invalidated 
info: Block [25][3] disabled and invalidated 
info: Block [26][2] disabled and invalidated 
info: Block [27][2] disabled and invalidated 
info: Block [28][1] disabled and invalidated 
info: Block [30][1] disabled and invalidated 
info: Block [30][2] disabled and invalidated 
info: Block [31][2] disabled and invalidated 
info: Block [31][3] disabled and invalidated 
info: Block [32][3] disabled and invalidated 
info: Block [33][3] disabled and invalidated 
info: Block [34][1] disabled and invalidated 
info: Block [34][2] disabled and invalidated 
info: Block [34][3] disabled and invalidated 
info: Block [35][1] disabled and invalidated 
info: Block [35][3] disabled and invalidated 
info: Block [36][1] disabled and invalidated 
info: Block [36][3] disabled and invalidated 
info: Block [37][2] disabled and invalidated 
info: Block [37][3] disabled and invalidated 
info: Block [39][1] disabled and invalidated 
info: Block [40][2] disabled and invalidated 
info: Block [41][3] disabled and invalidated 
info: Block [42][1] disabled and invalidated 
info: Block [43][3] disabled and invalidated 
info: Block [44][2] disabled and invalidated 
info: Block [44][3] disabled and invalidated 
info: Block [45][1] disabled and invalidated 
info: Block [46][2] disabled and invalidated 
info: Block [48][1] disabled and invalidated 
info: Block [48][2] disabled and invalidated 
info: Block [49][2] disabled and invalidated 
info: Block [49][3] disabled and invalidated 
info: Block [50][3] disabled and invalidated 
info: Block [51][1] disabled and invalidated 
info: Block [51][2] disabled and invalidated 
info: Block [52][1] disabled and invalidated 
info: Block [53][1] disabled and invalidated 
info: Block [53][2] disabled and invalidated 
info: Block [54][2] disabled and invalidated 
info: Block [55][1] disabled and invalidated 
info: Block [55][2] disabled and invalidated 
info: Block [55][3] disabled and invalidated 
info: Block [56][1] disabled and invalidated 
info: Block [56][3] disabled and invalidated 
info: Block [58][1] disabled and invalidated 
info: Block [58][3] disabled and invalidated 
info: Block [59][1] disabled and invalidated 
info: Block [59][2] disabled and invalidated 
info: Block [60][1] disabled and invalidated 
info: Block [60][2] disabled and invalidated 
info: Block [60][3] disabled and invalidated 
info: Block [61][1] disabled and invalidated 
info: Block [61][3] disabled and invalidated 
info: Block [62][3] disabled and invalidated 
info: Block [63][1] disabled and invalidated 
info: Block [63][3] disabled and invalidated 
info: Block [64][1] disabled and invalidated 
info: Block [65][2] disabled and invalidated 
info: Block [66][3] disabled and invalidated 
info: Block [67][1] disabled and invalidated 
info: Block [67][3] disabled and invalidated 
info: Block [68][1] disabled and invalidated 
info: Block [69][1] disabled and invalidated 
info: Block [69][2] disabled and invalidated 
info: Block [69][3] disabled and invalidated 
info: Block [70][1] disabled and invalidated 
info: Block [70][2] disabled and invalidated 
info: Block [71][1] disabled and invalidated 
info: Block [71][2] disabled and invalidated 
info: Block [72][2] disabled and invalidated 
info: Block [73][1] disabled and invalidated 
info: Block [74][3] disabled and invalidated 
info: Block [75][3] disabled and invalidated 
info: Block [76][1] disabled and invalidated 
info: Block [76][2] disabled and invalidated 
info: Block [77][2] disabled and invalidated 
info: Block [78][1] disabled and invalidated 
info: Block [79][1] disabled and invalidated 
info: Block [79][3] disabled and invalidated 
info: Block [80][2] disabled and invalidated 
info: Block [81][3] disabled and invalidated 
info: Block [82][1] disabled and invalidated 
info: Block [82][2] disabled and invalidated 
info: Block [82][3] disabled and invalidated 
info: Block [84][2] disabled and invalidated 
info: Block [84][3] disabled and invalidated 
info: Block [86][1] disabled and invalidated 
info: Block [86][2] disabled and invalidated 
info: Block [86][3] disabled and invalidated 
info: Block [87][1] disabled and invalidated 
info: Block [87][3] disabled and invalidated 
info: Block [88][3] disabled and invalidated 
info: Block [89][1] disabled and invalidated 
info: Block [90][2] disabled and invalidated 
info: Block [90][3] disabled and invalidated 
info: Block [91][1] disabled and invalidated 
info: Block [91][2] disabled and invalidated 
info: Block [92][3] disabled and invalidated 
info: Block [93][3] disabled and invalidated 
info: Block [94][3] disabled and invalidated 
info: Block [95][1] disabled and invalidated 
info: Block [95][3] disabled and invalidated 
info: Block [96][1] disabled and invalidated 
info: Block [96][2] disabled and invalidated 
info: Block [98][2] disabled and invalidated 
info: Block [99][2] disabled and invalidated 
info: Block [99][3] disabled and invalidated 
info: Block [100][1] disabled and invalidated 
info: Block [102][1] disabled and invalidated 
info: Block [103][1] disabled and invalidated 
info: Block [104][1] disabled and invalidated 
info: Block [104][2] disabled and invalidated 
info: Block [104][3] disabled and invalidated 
info: Block [105][1] disabled and invalidated 
info: Block [105][3] disabled and invalidated 
info: Block [106][3] disabled and invalidated 
info: Block [107][1] disabled and invalidated 
info: Block [107][3] disabled and invalidated 
info: Block [108][1] disabled and invalidated 
info: Block [109][3] disabled and invalidated 
info: Block [110][1] disabled and invalidated 
info: Block [110][2] disabled and invalidated 
info: Block [110][3] disabled and invalidated 
info: Block [111][2] disabled and invalidated 
info: Block [111][3] disabled and invalidated 
info: Block [112][2] disabled and invalidated 
info: Block [112][3] disabled and invalidated 
info: Block [115][1] disabled and invalidated 
info: Block [116][1] disabled and invalidated 
info: Block [116][2] disabled and invalidated 
info: Block [116][3] disabled and invalidated 
info: Block [117][1] disabled and invalidated 
info: Block [118][1] disabled and invalidated 
info: Block [118][2] disabled and invalidated 
info: Block [118][3] disabled and invalidated 
info: Block [120][3] disabled and invalidated 
info: Block [121][1] disabled and invalidated 
info: Block [121][2] disabled and invalidated 
info: Block [122][2] disabled and invalidated 
info: Block [122][3] disabled and invalidated 
info: Block [123][1] disabled and invalidated 
info: Block [123][2] disabled and invalidated 
info: Block [124][3] disabled and invalidated 
info: Block [125][1] disabled and invalidated 
info: Block [125][2] disabled and invalidated 
info: Block [126][1] disabled and invalidated 
info: Block [126][3] disabled and invalidated 
info: Block [127][2] disabled and invalidated 
info: Dumping cache status for current VDD = 480 mV and AFB = 1...
info: Status Bits: Disabled, Faulty, HWPrefetched, Referenced | Dirty, Readable, Writable, Valid
info: Block# = 0 ==>  0
info: Block# = 1 ==> 40
info: Block# = 2 ==> c0
info: Block# = 3 ==> c0
info: Block# = 4 ==>  0
info: Block# = 5 ==> 40
info: Block# = 6 ==> c0
info: Block# = 7 ==> 40
info: Block# = 8 ==>  0
info: Block# = 9 ==> c0
info: Block# = 10 ==> 40
info: Block# = 11 ==>  0
info: Block# = 12 ==>  0
info: Block# = 13 ==> 40
info: Block# = 14 ==> c0
info: Block# = 15 ==> 40
info: Block# = 16 ==>  0
info: Block# = 17 ==> 40
info: Block# = 18 ==> c0
info: Block# = 19 ==>  0
info: Block# = 20 ==>  0
info: Block# = 21 ==> c0
info: Block# = 22 ==> 40
info: Block# = 23 ==>  0
info: Block# = 24 ==>  0
info: Block# = 25 ==>  0
info: Block# = 26 ==> 40
info: Block# = 27 ==> 40
info: Block# = 28 ==>  0
info: Block# = 29 ==> 40
info: Block# = 30 ==> 40
info: Block# = 31 ==> c0
info: Block# = 32 ==>  0
info: Block# = 33 ==>  0
info: Block# = 34 ==>  0
info: Block# = 35 ==> 40
info: Block# = 36 ==>  0
info: Block# = 37 ==> c0
info: Block# = 38 ==> c0
info: Block# = 39 ==>  0
info: Block# = 40 ==>  0
info: Block# = 41 ==> c0
info: Block# = 42 ==>  0
info: Block# = 43 ==> c0
info: Block# = 44 ==>  0
info: Block# = 45 ==> c0
info: Block# = 46 ==> c0
info: Block# = 47 ==> c0
info: Block# = 48 ==>  0
info: Block# = 49 ==> 40
info: Block# = 50 ==> c0
info: Block# = 51 ==> 40
info: Block# = 52 ==>  0
info: Block# = 53 ==>  0
info: Block# = 54 ==>  0
info: Block# = 55 ==> c0
info: Block# = 56 ==>  0
info: Block# = 57 ==> c0
info: Block# = 58 ==> c0
info: Block# = 59 ==> c0
info: Block# = 60 ==>  0
info: Block# = 61 ==>  0
info: Block# = 62 ==> c0
info: Block# = 63 ==> c0
info: Block# = 64 ==>  0
info: Block# = 65 ==>  0
info: Block# = 66 ==> 40
info: Block# = 67 ==> c0
info: Block# = 68 ==>  0
info: Block# = 69 ==>  0
info: Block# = 70 ==> 40
info: Block# = 71 ==> c0
info: Block# = 72 ==>  0
info: Block# = 73 ==> c0
info: Block# = 74 ==> c0
info: Block# = 75 ==> 40
info: Block# = 76 ==>  0
info: Block# = 77 ==> c0
info: Block# = 78 ==>  0
info: Block# = 79 ==> c0
info: Block# = 80 ==>  0
info: Block# = 81 ==> c0
info: Block# = 82 ==> c0
info: Block# = 83 ==> c0
info: Block# = 84 ==>  0
info: Block# = 85 ==> 40
info: Block# = 86 ==> c0
info: Block# = 87 ==>  0
info: Block# = 88 ==>  0
info: Block# = 89 ==> 40
info: Block# = 90 ==> c0
info: Block# = 91 ==> 40
info: Block# = 92 ==>  0
info: Block# = 93 ==> c0
info: Block# = 94 ==> c0
info: Block# = 95 ==>  0
info: Block# = 96 ==>  0
info: Block# = 97 ==> 40
info: Block# = 98 ==> 40
info: Block# = 99 ==>  0
info: Block# = 100 ==>  0
info: Block# = 101 ==> 40
info: Block# = 102 ==> c0
info: Block# = 103 ==> c0
info: Block# = 104 ==>  0
info: Block# = 105 ==>  0
info: Block# = 106 ==> c0
info: Block# = 107 ==>  0
info: Block# = 108 ==>  0
info: Block# = 109 ==> 40
info: Block# = 110 ==> c0
info: Block# = 111 ==> 40
info: Block# = 112 ==>  0
info: Block# = 113 ==> c0
info: Block# = 114 ==> 40
info: Block# = 115 ==>  0
info: Block# = 116 ==>  0
info: Block# = 117 ==>  0
info: Block# = 118 ==> 40
info: Block# = 119 ==>  0
info: Block# = 120 ==>  0
info: Block# = 121 ==> c0
info: Block# = 122 ==> c0
info: Block# = 123 ==> 40
info: Block# = 124 ==>  0
info: Block# = 125 ==> 40
info: Block# = 126 ==> c0
info: Block# = 127 ==> c0
info: Block# = 128 ==>  0
info: Block# = 129 ==> 40
info: Block# = 130 ==>  0
info: Block# = 131 ==> c0
info: Block# = 132 ==>  0
info: Block# = 133 ==> 40
info: Block# = 134 ==> 40
info: Block# = 135 ==> c0
info: Block# = 136 ==>  0
info: Block# = 137 ==> c0
info: Block# = 138 ==> c0
info: Block# = 139 ==> c0
info: Block# = 140 ==>  0
info: Block# = 141 ==> c0
info: Block# = 142 ==>  0
info: Block# = 143 ==> c0
info: Block# = 144 ==>  0
info: Block# = 145 ==> c0
info: Block# = 146 ==>  0
info: Block# = 147 ==> c0
info: Block# = 148 ==>  0
info: Block# = 149 ==> 40
info: Block# = 150 ==> c0
info: Block# = 151 ==> c0
info: Block# = 152 ==>  0
info: Block# = 153 ==>  0
info: Block# = 154 ==>  0
info: Block# = 155 ==> 40
info: Block# = 156 ==>  0
info: Block# = 157 ==> c0
info: Block# = 158 ==> 40
info: Block# = 159 ==> 40
info: Block# = 160 ==>  0
info: Block# = 161 ==> 40
info: Block# = 162 ==> c0
info: Block# = 163 ==> 40
info: Block# = 164 ==>  0
info: Block# = 165 ==>  0
info: Block# = 166 ==> 40
info: Block# = 167 ==> c0
info: Block# = 168 ==>  0
info: Block# = 169 ==> c0
info: Block# = 170 ==>  0
info: Block# = 171 ==> 40
info: Block# = 172 ==>  0
info: Block# = 173 ==>  0
info: Block# = 174 ==> 40
info: Block# = 175 ==> c0
info: Block# = 176 ==>  0
info: Block# = 177 ==> 40
info: Block# = 178 ==> c0
info: Block# = 179 ==> c0
info: Block# = 180 ==>  0
info: Block# = 181 ==> c0
info: Block# = 182 ==>  0
info: Block# = 183 ==> 40
info: Block# = 184 ==>  0
info: Block# = 185 ==>  0
info: Block# = 186 ==> c0
info: Block# = 187 ==> 40
info: Block# = 188 ==>  0
info: Block# = 189 ==> 40
info: Block# = 190 ==>  0
info: Block# = 191 ==> 40
info: Block# = 192 ==>  0
info: Block# = 193 ==> c0
info: Block# = 194 ==> c0
info: Block# = 195 ==>  0
info: Block# = 196 ==>  0
info: Block# = 197 ==> 40
info: Block# = 198 ==> c0
info: Block# = 199 ==> c0
info: Block# = 200 ==>  0
info: Block# = 201 ==>  0
info: Block# = 202 ==> 40
info: Block# = 203 ==> c0
info: Block# = 204 ==>  0
info: Block# = 205 ==> c0
info: Block# = 206 ==> c0
info: Block# = 207 ==> 40
info: Block# = 208 ==>  0
info: Block# = 209 ==> c0
info: Block# = 210 ==>  0
info: Block# = 211 ==>  0
info: Block# = 212 ==>  0
info: Block# = 213 ==> c0
info: Block# = 214 ==> c0
info: Block# = 215 ==> 40
info: Block# = 216 ==>  0
info: Block# = 217 ==> 40
info: Block# = 218 ==> c0
info: Block# = 219 ==>  0
info: Block# = 220 ==>  0
info: Block# = 221 ==> c0
info: Block# = 222 ==> c0
info: Block# = 223 ==> c0
info: Block# = 224 ==>  0
info: Block# = 225 ==> c0
info: Block# = 226 ==> 40
info: Block# = 227 ==> c0
info: Block# = 228 ==>  0
info: Block# = 229 ==> 40
info: Block# = 230 ==> 40
info: Block# = 231 ==> 40
info: Block# = 232 ==>  0
info: Block# = 233 ==> c0
info: Block# = 234 ==> 40
info: Block# = 235 ==> c0
info: Block# = 236 ==>  0
info: Block# = 237 ==> c0
info: Block# = 238 ==> c0
info: Block# = 239 ==> 40
info: Block# = 240 ==>  0
info: Block# = 241 ==> c0
info: Block# = 242 ==> c0
info: Block# = 243 ==> c0
info: Block# = 244 ==>  0
info: Block# = 245 ==> c0
info: Block# = 246 ==> 40
info: Block# = 247 ==> c0
info: Block# = 248 ==>  0
info: Block# = 249 ==>  0
info: Block# = 250 ==> 40
info: Block# = 251 ==> c0
info: Block# = 252 ==>  0
info: Block# = 253 ==> c0
info: Block# = 254 ==> 40
info: Block# = 255 ==> c0
info: Block# = 256 ==>  0
info: Block# = 257 ==> c0
info: Block# = 258 ==> 40
info: Block# = 259 ==>  0
info: Block# = 260 ==>  0
info: Block# = 261 ==> 40
info: Block# = 262 ==> c0
info: Block# = 263 ==> 40
info: Block# = 264 ==>  0
info: Block# = 265 ==>  0
info: Block# = 266 ==> 40
info: Block# = 267 ==> c0
info: Block# = 268 ==>  0
info: Block# = 269 ==> c0
info: Block# = 270 ==> 40
info: Block# = 271 ==> c0
info: Block# = 272 ==>  0
info: Block# = 273 ==> c0
info: Block# = 274 ==> 40
info: Block# = 275 ==>  0
info: Block# = 276 ==>  0
info: Block# = 277 ==> c0
info: Block# = 278 ==> c0
info: Block# = 279 ==> c0
info: Block# = 280 ==>  0
info: Block# = 281 ==> c0
info: Block# = 282 ==> c0
info: Block# = 283 ==> 40
info: Block# = 284 ==>  0
info: Block# = 285 ==> c0
info: Block# = 286 ==> c0
info: Block# = 287 ==> 40
info: Block# = 288 ==>  0
info: Block# = 289 ==>  0
info: Block# = 290 ==> c0
info: Block# = 291 ==> 40
info: Block# = 292 ==>  0
info: Block# = 293 ==> c0
info: Block# = 294 ==>  0
info: Block# = 295 ==>  0
info: Block# = 296 ==>  0
info: Block# = 297 ==> 40
info: Block# = 298 ==>  0
info: Block# = 299 ==> c0
info: Block# = 300 ==>  0
info: Block# = 301 ==> 40
info: Block# = 302 ==>  0
info: Block# = 303 ==> c0
info: Block# = 304 ==>  0
info: Block# = 305 ==> c0
info: Block# = 306 ==> c0
info: Block# = 307 ==> 40
info: Block# = 308 ==>  0
info: Block# = 309 ==>  0
info: Block# = 310 ==> c0
info: Block# = 311 ==> 40
info: Block# = 312 ==>  0
info: Block# = 313 ==> c0
info: Block# = 314 ==> 40
info: Block# = 315 ==> 40
info: Block# = 316 ==>  0
info: Block# = 317 ==> c0
info: Block# = 318 ==> 40
info: Block# = 319 ==> c0
info: Block# = 320 ==>  0
info: Block# = 321 ==> 40
info: Block# = 322 ==> c0
info: Block# = 323 ==>  0
info: Block# = 324 ==>  0
info: Block# = 325 ==>  0
info: Block# = 326 ==> 40
info: Block# = 327 ==> c0
info: Block# = 328 ==>  0
info: Block# = 329 ==> c0
info: Block# = 330 ==> c0
info: Block# = 331 ==> c0
info: Block# = 332 ==>  0
info: Block# = 333 ==>  0
info: Block# = 334 ==> 40
info: Block# = 335 ==>  0
info: Block# = 336 ==>  0
info: Block# = 337 ==> 40
info: Block# = 338 ==> c0
info: Block# = 339 ==> c0
info: Block# = 340 ==>  0
info: Block# = 341 ==> 40
info: Block# = 342 ==>  0
info: Block# = 343 ==> 40
info: Block# = 344 ==>  0
info: Block# = 345 ==> c0
info: Block# = 346 ==> c0
info: Block# = 347 ==> c0
info: Block# = 348 ==>  0
info: Block# = 349 ==> c0
info: Block# = 350 ==> 40
info: Block# = 351 ==> c0
info: Block# = 352 ==>  0
info: Block# = 353 ==> 40
info: Block# = 354 ==> 40
info: Block# = 355 ==> c0
info: Block# = 356 ==>  0
info: Block# = 357 ==> c0
info: Block# = 358 ==> 40
info: Block# = 359 ==> 40
info: Block# = 360 ==>  0
info: Block# = 361 ==> 40
info: Block# = 362 ==> c0
info: Block# = 363 ==> c0
info: Block# = 364 ==>  0
info: Block# = 365 ==> c0
info: Block# = 366 ==> c0
info: Block# = 367 ==>  0
info: Block# = 368 ==>  0
info: Block# = 369 ==> 40
info: Block# = 370 ==> 40
info: Block# = 371 ==> c0
info: Block# = 372 ==>  0
info: Block# = 373 ==> 40
info: Block# = 374 ==> 40
info: Block# = 375 ==> c0
info: Block# = 376 ==>  0
info: Block# = 377 ==>  0
info: Block# = 378 ==> 40
info: Block# = 379 ==> c0
info: Block# = 380 ==>  0
info: Block# = 381 ==> c0
info: Block# = 382 ==>  0
info: Block# = 383 ==> c0
info: Block# = 384 ==>  0
info: Block# = 385 ==> c0
info: Block# = 386 ==> c0
info: Block# = 387 ==> 40
info: Block# = 388 ==>  0
info: Block# = 389 ==> 40
info: Block# = 390 ==> 40
info: Block# = 391 ==> 40
info: Block# = 392 ==>  0
info: Block# = 393 ==>  0
info: Block# = 394 ==> c0
info: Block# = 395 ==> 40
info: Block# = 396 ==>  0
info: Block# = 397 ==> 40
info: Block# = 398 ==> c0
info: Block# = 399 ==> c0
info: Block# = 400 ==>  0
info: Block# = 401 ==> c0
info: Block# = 402 ==>  0
info: Block# = 403 ==> 40
info: Block# = 404 ==>  0
info: Block# = 405 ==> 40
info: Block# = 406 ==> 40
info: Block# = 407 ==> 40
info: Block# = 408 ==>  0
info: Block# = 409 ==> c0
info: Block# = 410 ==>  0
info: Block# = 411 ==> 40
info: Block# = 412 ==>  0
info: Block# = 413 ==> c0
info: Block# = 414 ==>  0
info: Block# = 415 ==> 40
info: Block# = 416 ==>  0
info: Block# = 417 ==> c0
info: Block# = 418 ==> c0
info: Block# = 419 ==> c0
info: Block# = 420 ==>  0
info: Block# = 421 ==> c0
info: Block# = 422 ==>  0
info: Block# = 423 ==> c0
info: Block# = 424 ==>  0
info: Block# = 425 ==>  0
info: Block# = 426 ==> 40
info: Block# = 427 ==> c0
info: Block# = 428 ==>  0
info: Block# = 429 ==> c0
info: Block# = 430 ==> 40
info: Block# = 431 ==> c0
info: Block# = 432 ==>  0
info: Block# = 433 ==> c0
info: Block# = 434 ==> 40
info: Block# = 435 ==>  0
info: Block# = 436 ==>  0
info: Block# = 437 ==>  0
info: Block# = 438 ==> 40
info: Block# = 439 ==> c0
info: Block# = 440 ==>  0
info: Block# = 441 ==> c0
info: Block# = 442 ==> c0
info: Block# = 443 ==> c0
info: Block# = 444 ==>  0
info: Block# = 445 ==>  0
info: Block# = 446 ==> c0
info: Block# = 447 ==> c0
info: Block# = 448 ==>  0
info: Block# = 449 ==>  0
info: Block# = 450 ==> c0
info: Block# = 451 ==> c0
info: Block# = 452 ==>  0
info: Block# = 453 ==> 40
info: Block# = 454 ==>  0
info: Block# = 455 ==>  0
info: Block# = 456 ==>  0
info: Block# = 457 ==> 40
info: Block# = 458 ==>  0
info: Block# = 459 ==> 40
info: Block# = 460 ==>  0
info: Block# = 461 ==> c0
info: Block# = 462 ==>  0
info: Block# = 463 ==> 40
info: Block# = 464 ==>  0
info: Block# = 465 ==> c0
info: Block# = 466 ==> c0
info: Block# = 467 ==> c0
info: Block# = 468 ==>  0
info: Block# = 469 ==> c0
info: Block# = 470 ==>  0
info: Block# = 471 ==> 40
info: Block# = 472 ==>  0
info: Block# = 473 ==> c0
info: Block# = 474 ==> c0
info: Block# = 475 ==> c0
info: Block# = 476 ==>  0
info: Block# = 477 ==>  0
info: Block# = 478 ==>  0
info: Block# = 479 ==> 40
info: Block# = 480 ==>  0
info: Block# = 481 ==> 40
info: Block# = 482 ==>  0
info: Block# = 483 ==> c0
info: Block# = 484 ==>  0
info: Block# = 485 ==> c0
info: Block# = 486 ==> c0
info: Block# = 487 ==> 40
info: Block# = 488 ==>  0
info: Block# = 489 ==>  0
info: Block# = 490 ==> c0
info: Block# = 491 ==> c0
info: Block# = 492 ==>  0
info: Block# = 493 ==> c0
info: Block# = 494 ==> c0
info: Block# = 495 ==> 40
info: Block# = 496 ==>  0
info: Block# = 497 ==>  0
info: Block# = 498 ==> 40
info: Block# = 499 ==> c0
info: Block# = 500 ==>  0
info: Block# = 501 ==> c0
info: Block# = 502 ==> c0
info: Block# = 503 ==> 40
info: Block# = 504 ==>  0
info: Block# = 505 ==> c0
info: Block# = 506 ==>  0
info: Block# = 507 ==> c0
info: Block# = 508 ==>  0
info: Block# = 509 ==> 40
info: Block# = 510 ==> c0
info: Block# = 511 ==>  0
Switch at instruction count:3390
info: Entering event queue @ 0.  Starting simulation...
info: Increasing stack size by one page.
Switched CPUS @ tick 1711000
switching cpus
**** REAL SIMULATION ****
info: Entering event queue @ 1711000.  Starting simulation...
info: Increasing stack size by one page.
info: Increasing stack size by one page.
info: Increasing stack size by one page.
info: Increasing stack size by one page.
info: Increasing stack size by one page.
info: Increasing stack size by one page.
info: Increasing stack size by one page.
info: Increasing stack size by one page.
info: Increasing stack size by one page.
info: Increasing stack size by one page.
info: Increasing stack size by one page.
info: Increasing stack size by one page.
info: Increasing stack size by one page.
info: Increasing stack size by one page.
info: Increasing stack size by one page.
info: Increasing stack size by one page.
info: Increasing stack size by one page.
info: Increasing stack size by one page.
info: Increasing stack size by one page.
info: Increasing stack size by one page.
info: Increasing stack size by one page.
info: Increasing stack size by one page.
info: Increasing stack size by one page.
info: Increasing stack size by one page.
info: Increasing stack size by one page.
info: Increasing stack size by one page.
info: Increasing stack size by one page.
info: Increasing stack size by one page.
info: Increasing stack size by one page.
info: Increasing stack size by one page.
info: Increasing stack size by one page.
info: Increasing stack size by one page.
info: Increasing stack size by one page.
info: Increasing stack size by one page.
info: Increasing stack size by one page.
info: Increasing stack size by one page.
info: Increasing stack size by one page.
info: Increasing stack size by one page.
info: Increasing stack size by one page.
info: Increasing stack size by one page.
info: Increasing stack size by one page.
info: Increasing stack size by one page.
info: Increasing stack size by one page.
info: Increasing stack size by one page.
info: Increasing stack size by one page.
16185500: global: Approximate Region Added: begin=0x12010, end=0x52010, Table Size=1
31611000: global: Approximate Region Added: begin=0x1200cf470, end=0x1200cf674, Table Size=2
72651500: global: Approximate Region Added: begin=0x54010, end=0x978d4, Table Size=3
467188500: global: Approximate Region Added: begin=0x1200cf680, end=0x1200cf761, Table Size=4
Exiting @ tick 736273336000 because target called exit()
