
---------- Begin Simulation Statistics ----------
sim_seconds                                  0.184911                       # Number of seconds simulated
sim_ticks                                184910813500                       # Number of ticks simulated
final_tick                               184912524000                       # Number of ticks from beginning of simulation (restored from checkpoints and never reset)
sim_freq                                 1000000000000                       # Frequency of simulated ticks
host_inst_rate                                  55831                       # Simulator instruction rate (inst/s)
host_op_rate                                    55831                       # Simulator op (including micro ops) rate (op/s)
host_tick_rate                               12163365                       # Simulator tick rate (ticks/s)
host_mem_usage                                 750376                       # Number of bytes of host memory used
host_seconds                                 15202.28                       # Real time elapsed on the host
sim_insts                                   848760973                       # Number of instructions simulated
sim_ops                                     848760973                       # Number of ops (including micro ops) simulated
system.physmem.bytes_read::switch_cpus.inst        62656                       # Number of bytes read from this memory
system.physmem.bytes_read::switch_cpus.data     31489536                       # Number of bytes read from this memory
system.physmem.bytes_read::total             31552192                       # Number of bytes read from this memory
system.physmem.bytes_inst_read::switch_cpus.inst        62656                       # Number of instructions bytes read from this memory
system.physmem.bytes_inst_read::total           62656                       # Number of instructions bytes read from this memory
system.physmem.bytes_written::writebacks     15738048                       # Number of bytes written to this memory
system.physmem.bytes_written::total          15738048                       # Number of bytes written to this memory
system.physmem.num_reads::switch_cpus.inst          979                       # Number of read requests responded to by this memory
system.physmem.num_reads::switch_cpus.data       492024                       # Number of read requests responded to by this memory
system.physmem.num_reads::total                493003                       # Number of read requests responded to by this memory
system.physmem.num_writes::writebacks          245907                       # Number of write requests responded to by this memory
system.physmem.num_writes::total               245907                       # Number of write requests responded to by this memory
system.physmem.bw_read::switch_cpus.inst       338844                       # Total read bandwidth from this memory (bytes/s)
system.physmem.bw_read::switch_cpus.data    170295806                       # Total read bandwidth from this memory (bytes/s)
system.physmem.bw_read::total               170634650                       # Total read bandwidth from this memory (bytes/s)
system.physmem.bw_inst_read::switch_cpus.inst       338844                       # Instruction read bandwidth from this memory (bytes/s)
system.physmem.bw_inst_read::total             338844                       # Instruction read bandwidth from this memory (bytes/s)
system.physmem.bw_write::writebacks          85111561                       # Write bandwidth from this memory (bytes/s)
system.physmem.bw_write::total               85111561                       # Write bandwidth from this memory (bytes/s)
system.physmem.bw_total::writebacks          85111561                       # Total bandwidth to/from this memory (bytes/s)
system.physmem.bw_total::switch_cpus.inst       338844                       # Total bandwidth to/from this memory (bytes/s)
system.physmem.bw_total::switch_cpus.data    170295806                       # Total bandwidth to/from this memory (bytes/s)
system.physmem.bw_total::total              255746211                       # Total bandwidth to/from this memory (bytes/s)
system.physmem.readReqs                        493004                       # Total number of read requests seen
system.physmem.writeReqs                       245907                       # Total number of write requests seen
system.physmem.cpureqs                         738911                       # Reqs generatd by CPU via cache - shady
system.physmem.bytesRead                     31552192                       # Total number of bytes read from memory
system.physmem.bytesWritten                  15738048                       # Total number of bytes written to memory
system.physmem.bytesConsumedRd               31552192                       # bytesRead derated as per pkt->getSize()
system.physmem.bytesConsumedWr               15738048                       # bytesWritten derated as per pkt->getSize()
system.physmem.servicedByWrQ                       14                       # Number of read reqs serviced by write Q
system.physmem.neitherReadNorWrite                  0                       # Reqs where no action is needed
system.physmem.perBankRdReqs::0                 30894                       # Track reads on a per bank basis
system.physmem.perBankRdReqs::1                 30791                       # Track reads on a per bank basis
system.physmem.perBankRdReqs::2                 30865                       # Track reads on a per bank basis
system.physmem.perBankRdReqs::3                 30736                       # Track reads on a per bank basis
system.physmem.perBankRdReqs::4                 30763                       # Track reads on a per bank basis
system.physmem.perBankRdReqs::5                 30769                       # Track reads on a per bank basis
system.physmem.perBankRdReqs::6                 30767                       # Track reads on a per bank basis
system.physmem.perBankRdReqs::7                 30810                       # Track reads on a per bank basis
system.physmem.perBankRdReqs::8                 30747                       # Track reads on a per bank basis
system.physmem.perBankRdReqs::9                 30760                       # Track reads on a per bank basis
system.physmem.perBankRdReqs::10                30765                       # Track reads on a per bank basis
system.physmem.perBankRdReqs::11                30885                       # Track reads on a per bank basis
system.physmem.perBankRdReqs::12                30911                       # Track reads on a per bank basis
system.physmem.perBankRdReqs::13                30852                       # Track reads on a per bank basis
system.physmem.perBankRdReqs::14                30772                       # Track reads on a per bank basis
system.physmem.perBankRdReqs::15                30903                       # Track reads on a per bank basis
system.physmem.perBankWrReqs::0                 15361                       # Track writes on a per bank basis
system.physmem.perBankWrReqs::1                 15361                       # Track writes on a per bank basis
system.physmem.perBankWrReqs::2                 15360                       # Track writes on a per bank basis
system.physmem.perBankWrReqs::3                 15360                       # Track writes on a per bank basis
system.physmem.perBankWrReqs::4                 15368                       # Track writes on a per bank basis
system.physmem.perBankWrReqs::5                 15406                       # Track writes on a per bank basis
system.physmem.perBankWrReqs::6                 15360                       # Track writes on a per bank basis
system.physmem.perBankWrReqs::7                 15360                       # Track writes on a per bank basis
system.physmem.perBankWrReqs::8                 15360                       # Track writes on a per bank basis
system.physmem.perBankWrReqs::9                 15360                       # Track writes on a per bank basis
system.physmem.perBankWrReqs::10                15361                       # Track writes on a per bank basis
system.physmem.perBankWrReqs::11                15409                       # Track writes on a per bank basis
system.physmem.perBankWrReqs::12                15395                       # Track writes on a per bank basis
system.physmem.perBankWrReqs::13                15360                       # Track writes on a per bank basis
system.physmem.perBankWrReqs::14                15366                       # Track writes on a per bank basis
system.physmem.perBankWrReqs::15                15360                       # Track writes on a per bank basis
system.physmem.numRdRetry                           0                       # Number of times rd buffer was full causing retry
system.physmem.numWrRetry                           0                       # Number of times wr buffer was full causing retry
system.physmem.totGap                    184910783500                       # Total gap between requests
system.physmem.readPktSize::0                       0                       # Categorize read packet sizes
system.physmem.readPktSize::1                       0                       # Categorize read packet sizes
system.physmem.readPktSize::2                       0                       # Categorize read packet sizes
system.physmem.readPktSize::3                       0                       # Categorize read packet sizes
system.physmem.readPktSize::4                       0                       # Categorize read packet sizes
system.physmem.readPktSize::5                       0                       # Categorize read packet sizes
system.physmem.readPktSize::6                  493004                       # Categorize read packet sizes
system.physmem.writePktSize::0                      0                       # Categorize write packet sizes
system.physmem.writePktSize::1                      0                       # Categorize write packet sizes
system.physmem.writePktSize::2                      0                       # Categorize write packet sizes
system.physmem.writePktSize::3                      0                       # Categorize write packet sizes
system.physmem.writePktSize::4                      0                       # Categorize write packet sizes
system.physmem.writePktSize::5                      0                       # Categorize write packet sizes
system.physmem.writePktSize::6                 245907                       # Categorize write packet sizes
system.physmem.rdQLenPdf::0                    492430                       # What read queue length does an incoming req see
system.physmem.rdQLenPdf::1                       425                       # What read queue length does an incoming req see
system.physmem.rdQLenPdf::2                       112                       # What read queue length does an incoming req see
system.physmem.rdQLenPdf::3                        21                       # What read queue length does an incoming req see
system.physmem.rdQLenPdf::4                         2                       # What read queue length does an incoming req see
system.physmem.rdQLenPdf::5                         0                       # What read queue length does an incoming req see
system.physmem.rdQLenPdf::6                         0                       # What read queue length does an incoming req see
system.physmem.rdQLenPdf::7                         0                       # What read queue length does an incoming req see
system.physmem.rdQLenPdf::8                         0                       # What read queue length does an incoming req see
system.physmem.rdQLenPdf::9                         0                       # What read queue length does an incoming req see
system.physmem.rdQLenPdf::10                        0                       # What read queue length does an incoming req see
system.physmem.rdQLenPdf::11                        0                       # What read queue length does an incoming req see
system.physmem.rdQLenPdf::12                        0                       # What read queue length does an incoming req see
system.physmem.rdQLenPdf::13                        0                       # What read queue length does an incoming req see
system.physmem.rdQLenPdf::14                        0                       # What read queue length does an incoming req see
system.physmem.rdQLenPdf::15                        0                       # What read queue length does an incoming req see
system.physmem.rdQLenPdf::16                        0                       # What read queue length does an incoming req see
system.physmem.rdQLenPdf::17                        0                       # What read queue length does an incoming req see
system.physmem.rdQLenPdf::18                        0                       # What read queue length does an incoming req see
system.physmem.rdQLenPdf::19                        0                       # What read queue length does an incoming req see
system.physmem.rdQLenPdf::20                        0                       # What read queue length does an incoming req see
system.physmem.rdQLenPdf::21                        0                       # What read queue length does an incoming req see
system.physmem.rdQLenPdf::22                        0                       # What read queue length does an incoming req see
system.physmem.rdQLenPdf::23                        0                       # What read queue length does an incoming req see
system.physmem.rdQLenPdf::24                        0                       # What read queue length does an incoming req see
system.physmem.rdQLenPdf::25                        0                       # What read queue length does an incoming req see
system.physmem.rdQLenPdf::26                        0                       # What read queue length does an incoming req see
system.physmem.rdQLenPdf::27                        0                       # What read queue length does an incoming req see
system.physmem.rdQLenPdf::28                        0                       # What read queue length does an incoming req see
system.physmem.rdQLenPdf::29                        0                       # What read queue length does an incoming req see
system.physmem.rdQLenPdf::30                        0                       # What read queue length does an incoming req see
system.physmem.rdQLenPdf::31                        0                       # What read queue length does an incoming req see
system.physmem.wrQLenPdf::0                     10686                       # What write queue length does an incoming req see
system.physmem.wrQLenPdf::1                     10691                       # What write queue length does an incoming req see
system.physmem.wrQLenPdf::2                     10691                       # What write queue length does an incoming req see
system.physmem.wrQLenPdf::3                     10692                       # What write queue length does an incoming req see
system.physmem.wrQLenPdf::4                     10692                       # What write queue length does an incoming req see
system.physmem.wrQLenPdf::5                     10692                       # What write queue length does an incoming req see
system.physmem.wrQLenPdf::6                     10692                       # What write queue length does an incoming req see
system.physmem.wrQLenPdf::7                     10692                       # What write queue length does an incoming req see
system.physmem.wrQLenPdf::8                     10692                       # What write queue length does an incoming req see
system.physmem.wrQLenPdf::9                     10692                       # What write queue length does an incoming req see
system.physmem.wrQLenPdf::10                    10692                       # What write queue length does an incoming req see
system.physmem.wrQLenPdf::11                    10692                       # What write queue length does an incoming req see
system.physmem.wrQLenPdf::12                    10692                       # What write queue length does an incoming req see
system.physmem.wrQLenPdf::13                    10692                       # What write queue length does an incoming req see
system.physmem.wrQLenPdf::14                    10691                       # What write queue length does an incoming req see
system.physmem.wrQLenPdf::15                    10691                       # What write queue length does an incoming req see
system.physmem.wrQLenPdf::16                    10691                       # What write queue length does an incoming req see
system.physmem.wrQLenPdf::17                    10691                       # What write queue length does an incoming req see
system.physmem.wrQLenPdf::18                    10691                       # What write queue length does an incoming req see
system.physmem.wrQLenPdf::19                    10691                       # What write queue length does an incoming req see
system.physmem.wrQLenPdf::20                    10691                       # What write queue length does an incoming req see
system.physmem.wrQLenPdf::21                    10691                       # What write queue length does an incoming req see
system.physmem.wrQLenPdf::22                    10691                       # What write queue length does an incoming req see
system.physmem.wrQLenPdf::23                        6                       # What write queue length does an incoming req see
system.physmem.wrQLenPdf::24                        1                       # What write queue length does an incoming req see
system.physmem.wrQLenPdf::25                        1                       # What write queue length does an incoming req see
system.physmem.wrQLenPdf::26                        0                       # What write queue length does an incoming req see
system.physmem.wrQLenPdf::27                        0                       # What write queue length does an incoming req see
system.physmem.wrQLenPdf::28                        0                       # What write queue length does an incoming req see
system.physmem.wrQLenPdf::29                        0                       # What write queue length does an incoming req see
system.physmem.wrQLenPdf::30                        0                       # What write queue length does an incoming req see
system.physmem.wrQLenPdf::31                        0                       # What write queue length does an incoming req see
system.physmem.bytesPerActivate::samples        35505                       # Bytes accessed per row activation
system.physmem.bytesPerActivate::mean     1330.435713                       # Bytes accessed per row activation
system.physmem.bytesPerActivate::gmean     621.805675                       # Bytes accessed per row activation
system.physmem.bytesPerActivate::stdev    1970.457908                       # Bytes accessed per row activation
system.physmem.bytesPerActivate::64-65           4270     12.03%     12.03% # Bytes accessed per row activation
system.physmem.bytesPerActivate::128-129         3581     10.09%     22.11% # Bytes accessed per row activation
system.physmem.bytesPerActivate::192-193          572      1.61%     23.72% # Bytes accessed per row activation
system.physmem.bytesPerActivate::256-257          595      1.68%     25.40% # Bytes accessed per row activation
system.physmem.bytesPerActivate::320-321          603      1.70%     27.10% # Bytes accessed per row activation
system.physmem.bytesPerActivate::384-385          722      2.03%     29.13% # Bytes accessed per row activation
system.physmem.bytesPerActivate::448-449         1512      4.26%     33.39% # Bytes accessed per row activation
system.physmem.bytesPerActivate::512-513         2309      6.50%     39.89% # Bytes accessed per row activation
system.physmem.bytesPerActivate::576-577          653      1.84%     41.73% # Bytes accessed per row activation
system.physmem.bytesPerActivate::640-641          590      1.66%     43.39% # Bytes accessed per row activation
system.physmem.bytesPerActivate::704-705          513      1.44%     44.84% # Bytes accessed per row activation
system.physmem.bytesPerActivate::768-769          564      1.59%     46.43% # Bytes accessed per row activation
system.physmem.bytesPerActivate::832-833          620      1.75%     48.17% # Bytes accessed per row activation
system.physmem.bytesPerActivate::896-897          893      2.52%     50.69% # Bytes accessed per row activation
system.physmem.bytesPerActivate::960-961         3296      9.28%     59.97% # Bytes accessed per row activation
system.physmem.bytesPerActivate::1024-1025         1881      5.30%     65.27% # Bytes accessed per row activation
system.physmem.bytesPerActivate::1088-1089          572      1.61%     66.88% # Bytes accessed per row activation
system.physmem.bytesPerActivate::1152-1153          595      1.68%     68.56% # Bytes accessed per row activation
system.physmem.bytesPerActivate::1216-1217          439      1.24%     69.79% # Bytes accessed per row activation
system.physmem.bytesPerActivate::1280-1281          514      1.45%     71.24% # Bytes accessed per row activation
system.physmem.bytesPerActivate::1344-1345          553      1.56%     72.80% # Bytes accessed per row activation
system.physmem.bytesPerActivate::1408-1409          697      1.96%     74.76% # Bytes accessed per row activation
system.physmem.bytesPerActivate::1472-1473         4645     13.08%     87.84% # Bytes accessed per row activation
system.physmem.bytesPerActivate::1536-1537          136      0.38%     88.23% # Bytes accessed per row activation
system.physmem.bytesPerActivate::1600-1601          119      0.34%     88.56% # Bytes accessed per row activation
system.physmem.bytesPerActivate::1664-1665          102      0.29%     88.85% # Bytes accessed per row activation
system.physmem.bytesPerActivate::1728-1729           84      0.24%     89.09% # Bytes accessed per row activation
system.physmem.bytesPerActivate::1792-1793           80      0.23%     89.31% # Bytes accessed per row activation
system.physmem.bytesPerActivate::1856-1857           60      0.17%     89.48% # Bytes accessed per row activation
system.physmem.bytesPerActivate::1920-1921           75      0.21%     89.69% # Bytes accessed per row activation
system.physmem.bytesPerActivate::1984-1985           81      0.23%     89.92% # Bytes accessed per row activation
system.physmem.bytesPerActivate::2048-2049           51      0.14%     90.06% # Bytes accessed per row activation
system.physmem.bytesPerActivate::2112-2113           84      0.24%     90.30% # Bytes accessed per row activation
system.physmem.bytesPerActivate::2176-2177           70      0.20%     90.50% # Bytes accessed per row activation
system.physmem.bytesPerActivate::2240-2241           38      0.11%     90.60% # Bytes accessed per row activation
system.physmem.bytesPerActivate::2304-2305           37      0.10%     90.71% # Bytes accessed per row activation
system.physmem.bytesPerActivate::2368-2369           38      0.11%     90.82% # Bytes accessed per row activation
system.physmem.bytesPerActivate::2432-2433           23      0.06%     90.88% # Bytes accessed per row activation
system.physmem.bytesPerActivate::2496-2497           25      0.07%     90.95% # Bytes accessed per row activation
system.physmem.bytesPerActivate::2560-2561           25      0.07%     91.02% # Bytes accessed per row activation
system.physmem.bytesPerActivate::2624-2625           25      0.07%     91.09% # Bytes accessed per row activation
system.physmem.bytesPerActivate::2688-2689           27      0.08%     91.17% # Bytes accessed per row activation
system.physmem.bytesPerActivate::2752-2753           15      0.04%     91.21% # Bytes accessed per row activation
system.physmem.bytesPerActivate::2816-2817           23      0.06%     91.27% # Bytes accessed per row activation
system.physmem.bytesPerActivate::2880-2881           28      0.08%     91.35% # Bytes accessed per row activation
system.physmem.bytesPerActivate::2944-2945           36      0.10%     91.45% # Bytes accessed per row activation
system.physmem.bytesPerActivate::3008-3009           19      0.05%     91.51% # Bytes accessed per row activation
system.physmem.bytesPerActivate::3072-3073           12      0.03%     91.54% # Bytes accessed per row activation
system.physmem.bytesPerActivate::3136-3137           13      0.04%     91.58% # Bytes accessed per row activation
system.physmem.bytesPerActivate::3200-3201           15      0.04%     91.62% # Bytes accessed per row activation
system.physmem.bytesPerActivate::3264-3265           13      0.04%     91.66% # Bytes accessed per row activation
system.physmem.bytesPerActivate::3328-3329           15      0.04%     91.70% # Bytes accessed per row activation
system.physmem.bytesPerActivate::3392-3393           13      0.04%     91.74% # Bytes accessed per row activation
system.physmem.bytesPerActivate::3456-3457           14      0.04%     91.78% # Bytes accessed per row activation
system.physmem.bytesPerActivate::3520-3521           13      0.04%     91.81% # Bytes accessed per row activation
system.physmem.bytesPerActivate::3584-3585           18      0.05%     91.86% # Bytes accessed per row activation
system.physmem.bytesPerActivate::3648-3649           13      0.04%     91.90% # Bytes accessed per row activation
system.physmem.bytesPerActivate::3712-3713           18      0.05%     91.95% # Bytes accessed per row activation
system.physmem.bytesPerActivate::3776-3777           14      0.04%     91.99% # Bytes accessed per row activation
system.physmem.bytesPerActivate::3840-3841           11      0.03%     92.02% # Bytes accessed per row activation
system.physmem.bytesPerActivate::3904-3905           10      0.03%     92.05% # Bytes accessed per row activation
system.physmem.bytesPerActivate::3968-3969           14      0.04%     92.09% # Bytes accessed per row activation
system.physmem.bytesPerActivate::4032-4033           36      0.10%     92.19% # Bytes accessed per row activation
system.physmem.bytesPerActivate::4096-4097           10      0.03%     92.22% # Bytes accessed per row activation
system.physmem.bytesPerActivate::4160-4161           33      0.09%     92.31% # Bytes accessed per row activation
system.physmem.bytesPerActivate::4224-4225           14      0.04%     92.35% # Bytes accessed per row activation
system.physmem.bytesPerActivate::4288-4289            6      0.02%     92.37% # Bytes accessed per row activation
system.physmem.bytesPerActivate::4352-4353           10      0.03%     92.40% # Bytes accessed per row activation
system.physmem.bytesPerActivate::4416-4417           11      0.03%     92.43% # Bytes accessed per row activation
system.physmem.bytesPerActivate::4480-4481           13      0.04%     92.46% # Bytes accessed per row activation
system.physmem.bytesPerActivate::4544-4545            3      0.01%     92.47% # Bytes accessed per row activation
system.physmem.bytesPerActivate::4608-4609           12      0.03%     92.51% # Bytes accessed per row activation
system.physmem.bytesPerActivate::4672-4673            5      0.01%     92.52% # Bytes accessed per row activation
system.physmem.bytesPerActivate::4736-4737           12      0.03%     92.55% # Bytes accessed per row activation
system.physmem.bytesPerActivate::4800-4801           15      0.04%     92.60% # Bytes accessed per row activation
system.physmem.bytesPerActivate::4864-4865            7      0.02%     92.62% # Bytes accessed per row activation
system.physmem.bytesPerActivate::4928-4929           11      0.03%     92.65% # Bytes accessed per row activation
system.physmem.bytesPerActivate::4992-4993           10      0.03%     92.67% # Bytes accessed per row activation
system.physmem.bytesPerActivate::5056-5057            8      0.02%     92.70% # Bytes accessed per row activation
system.physmem.bytesPerActivate::5120-5121            5      0.01%     92.71% # Bytes accessed per row activation
system.physmem.bytesPerActivate::5184-5185            5      0.01%     92.72% # Bytes accessed per row activation
system.physmem.bytesPerActivate::5248-5249            5      0.01%     92.74% # Bytes accessed per row activation
system.physmem.bytesPerActivate::5312-5313            3      0.01%     92.75% # Bytes accessed per row activation
system.physmem.bytesPerActivate::5376-5377           12      0.03%     92.78% # Bytes accessed per row activation
system.physmem.bytesPerActivate::5440-5441           10      0.03%     92.81% # Bytes accessed per row activation
system.physmem.bytesPerActivate::5504-5505           14      0.04%     92.85% # Bytes accessed per row activation
system.physmem.bytesPerActivate::5568-5569            6      0.02%     92.87% # Bytes accessed per row activation
system.physmem.bytesPerActivate::5632-5633           14      0.04%     92.91% # Bytes accessed per row activation
system.physmem.bytesPerActivate::5696-5697            7      0.02%     92.92% # Bytes accessed per row activation
system.physmem.bytesPerActivate::5760-5761            2      0.01%     92.93% # Bytes accessed per row activation
system.physmem.bytesPerActivate::5824-5825            5      0.01%     92.94% # Bytes accessed per row activation
system.physmem.bytesPerActivate::5888-5889           10      0.03%     92.97% # Bytes accessed per row activation
system.physmem.bytesPerActivate::5952-5953            3      0.01%     92.98% # Bytes accessed per row activation
system.physmem.bytesPerActivate::6016-6017           12      0.03%     93.02% # Bytes accessed per row activation
system.physmem.bytesPerActivate::6080-6081           34      0.10%     93.11% # Bytes accessed per row activation
system.physmem.bytesPerActivate::6144-6145            6      0.02%     93.13% # Bytes accessed per row activation
system.physmem.bytesPerActivate::6208-6209           28      0.08%     93.21% # Bytes accessed per row activation
system.physmem.bytesPerActivate::6272-6273            3      0.01%     93.22% # Bytes accessed per row activation
system.physmem.bytesPerActivate::6336-6337           10      0.03%     93.24% # Bytes accessed per row activation
system.physmem.bytesPerActivate::6400-6401           14      0.04%     93.28% # Bytes accessed per row activation
system.physmem.bytesPerActivate::6464-6465            7      0.02%     93.30% # Bytes accessed per row activation
system.physmem.bytesPerActivate::6528-6529           11      0.03%     93.33% # Bytes accessed per row activation
system.physmem.bytesPerActivate::6592-6593            3      0.01%     93.34% # Bytes accessed per row activation
system.physmem.bytesPerActivate::6656-6657            5      0.01%     93.36% # Bytes accessed per row activation
system.physmem.bytesPerActivate::6720-6721            4      0.01%     93.37% # Bytes accessed per row activation
system.physmem.bytesPerActivate::6784-6785           12      0.03%     93.40% # Bytes accessed per row activation
system.physmem.bytesPerActivate::6848-6849            7      0.02%     93.42% # Bytes accessed per row activation
system.physmem.bytesPerActivate::6912-6913            8      0.02%     93.44% # Bytes accessed per row activation
system.physmem.bytesPerActivate::6976-6977            7      0.02%     93.46% # Bytes accessed per row activation
system.physmem.bytesPerActivate::7040-7041            8      0.02%     93.49% # Bytes accessed per row activation
system.physmem.bytesPerActivate::7104-7105           10      0.03%     93.51% # Bytes accessed per row activation
system.physmem.bytesPerActivate::7168-7169            2      0.01%     93.52% # Bytes accessed per row activation
system.physmem.bytesPerActivate::7232-7233           19      0.05%     93.57% # Bytes accessed per row activation
system.physmem.bytesPerActivate::7296-7297            7      0.02%     93.59% # Bytes accessed per row activation
system.physmem.bytesPerActivate::7360-7361            6      0.02%     93.61% # Bytes accessed per row activation
system.physmem.bytesPerActivate::7424-7425            6      0.02%     93.63% # Bytes accessed per row activation
system.physmem.bytesPerActivate::7488-7489            3      0.01%     93.63% # Bytes accessed per row activation
system.physmem.bytesPerActivate::7552-7553            4      0.01%     93.65% # Bytes accessed per row activation
system.physmem.bytesPerActivate::7616-7617            7      0.02%     93.67% # Bytes accessed per row activation
system.physmem.bytesPerActivate::7680-7681            6      0.02%     93.68% # Bytes accessed per row activation
system.physmem.bytesPerActivate::7744-7745           10      0.03%     93.71% # Bytes accessed per row activation
system.physmem.bytesPerActivate::7808-7809            9      0.03%     93.74% # Bytes accessed per row activation
system.physmem.bytesPerActivate::7872-7873           12      0.03%     93.77% # Bytes accessed per row activation
system.physmem.bytesPerActivate::7936-7937           11      0.03%     93.80% # Bytes accessed per row activation
system.physmem.bytesPerActivate::8000-8001            9      0.03%     93.83% # Bytes accessed per row activation
system.physmem.bytesPerActivate::8064-8065           13      0.04%     93.86% # Bytes accessed per row activation
system.physmem.bytesPerActivate::8128-8129           38      0.11%     93.97% # Bytes accessed per row activation
system.physmem.bytesPerActivate::8192-8193         2141      6.03%    100.00% # Bytes accessed per row activation
system.physmem.bytesPerActivate::total          35505                       # Bytes accessed per row activation
system.physmem.totQLat                      340464000                       # Total cycles spent in queuing delays
system.physmem.totMemAccLat               10005367750                       # Sum of mem lat for all requests
system.physmem.totBusLat                   2464950000                       # Total cycles spent in databus access
system.physmem.totBankLat                  7199953750                       # Total cycles spent in bank access
system.physmem.avgQLat                         690.61                       # Average queueing delay per request
system.physmem.avgBankLat                    14604.66                       # Average bank access latency per request
system.physmem.avgBusLat                      5000.00                       # Average bus latency per request
system.physmem.avgMemAccLat                  20295.28                       # Average memory access latency
system.physmem.avgRdBW                         170.63                       # Average achieved read bandwidth in MB/s
system.physmem.avgWrBW                          85.11                       # Average achieved write bandwidth in MB/s
system.physmem.avgConsumedRdBW                 170.63                       # Average consumed read bandwidth in MB/s
system.physmem.avgConsumedWrBW                  85.11                       # Average consumed write bandwidth in MB/s
system.physmem.peakBW                        12800.00                       # Theoretical peak bandwidth in MB/s
system.physmem.busUtil                           2.00                       # Data bus utilization in percentage
system.physmem.avgRdQLen                         0.05                       # Average read queue length over time
system.physmem.avgWrQLen                        11.32                       # Average write queue length over time
system.physmem.readRowHits                     471509                       # Number of row buffer hits during reads
system.physmem.writeRowHits                    231869                       # Number of row buffer hits during writes
system.physmem.readRowHitRate                   95.64                       # Row buffer hit rate for reads
system.physmem.writeRowHitRate                  94.29                       # Row buffer hit rate for writes
system.physmem.avgGap                       250247.71                       # Average gap between requests
system.membus.throughput                    255745865                       # Throughput (bytes/s)
system.membus.trans_dist::ReadReq              247017                       # Transaction distribution
system.membus.trans_dist::ReadResp             247015                       # Transaction distribution
system.membus.trans_dist::Writeback            245907                       # Transaction distribution
system.membus.trans_dist::ReadExReq            245987                       # Transaction distribution
system.membus.trans_dist::ReadExResp           245987                       # Transaction distribution
system.membus.pkt_count_system.l2.mem_side      1231913                       # Packet count per connected master and slave (bytes)
system.membus.pkt_count                       1231913                       # Packet count per connected master and slave (bytes)
system.membus.tot_pkt_size_system.l2.mem_side     47290176                       # Cumulative packet size per connected master and slave (bytes)
system.membus.tot_pkt_size                   47290176                       # Cumulative packet size per connected master and slave (bytes)
system.membus.data_through_bus               47290176                       # Total data (bytes)
system.membus.snoop_data_through_bus                0                       # Total snoop data (bytes)
system.membus.reqLayer0.occupancy          1353083500                       # Layer occupancy (ticks)
system.membus.reqLayer0.utilization               0.7                       # Layer utilization (%)
system.membus.respLayer1.occupancy         2338637750                       # Layer occupancy (ticks)
system.membus.respLayer1.utilization              1.3                       # Layer utilization (%)
system.switch_cpus.branchPred.lookups        28915420                       # Number of BP lookups
system.switch_cpus.branchPred.condPredicted      9999764                       # Number of conditional branches predicted
system.switch_cpus.branchPred.condIncorrect        13823                       # Number of conditional branches incorrect
system.switch_cpus.branchPred.BTBLookups     18377429                       # Number of BTB lookups
system.switch_cpus.branchPred.BTBHits        18366311                       # Number of BTB hits
system.switch_cpus.branchPred.BTBCorrect            0                       # Number of correct BTB predictions (this stat may not work properly.
system.switch_cpus.branchPred.BTBHitPct     99.939502                       # BTB Hit Percentage
system.switch_cpus.branchPred.usedRAS         9450026                       # Number of times the RAS was used to get a target.
system.switch_cpus.branchPred.RASInCorrect          107                       # Number of incorrect RAS predictions.
system.switch_cpus.dtb.fetch_hits                   0                       # ITB hits
system.switch_cpus.dtb.fetch_misses                 0                       # ITB misses
system.switch_cpus.dtb.fetch_acv                    0                       # ITB acv
system.switch_cpus.dtb.fetch_accesses               0                       # ITB accesses
system.switch_cpus.dtb.read_hits            242277960                       # DTB read hits
system.switch_cpus.dtb.read_misses               4533                       # DTB read misses
system.switch_cpus.dtb.read_acv                     1                       # DTB read access violations
system.switch_cpus.dtb.read_accesses        242282493                       # DTB read accesses
system.switch_cpus.dtb.write_hits            81090185                       # DTB write hits
system.switch_cpus.dtb.write_misses              2254                       # DTB write misses
system.switch_cpus.dtb.write_acv                    0                       # DTB write access violations
system.switch_cpus.dtb.write_accesses        81092439                       # DTB write accesses
system.switch_cpus.dtb.data_hits            323368145                       # DTB hits
system.switch_cpus.dtb.data_misses               6787                       # DTB misses
system.switch_cpus.dtb.data_acv                     1                       # DTB access violations
system.switch_cpus.dtb.data_accesses        323374932                       # DTB accesses
system.switch_cpus.itb.fetch_hits            77407029                       # ITB hits
system.switch_cpus.itb.fetch_misses               100                       # ITB misses
system.switch_cpus.itb.fetch_acv                    0                       # ITB acv
system.switch_cpus.itb.fetch_accesses        77407129                       # ITB accesses
system.switch_cpus.itb.read_hits                    0                       # DTB read hits
system.switch_cpus.itb.read_misses                  0                       # DTB read misses
system.switch_cpus.itb.read_acv                     0                       # DTB read access violations
system.switch_cpus.itb.read_accesses                0                       # DTB read accesses
system.switch_cpus.itb.write_hits                   0                       # DTB write hits
system.switch_cpus.itb.write_misses                 0                       # DTB write misses
system.switch_cpus.itb.write_acv                    0                       # DTB write access violations
system.switch_cpus.itb.write_accesses               0                       # DTB write accesses
system.switch_cpus.itb.data_hits                    0                       # DTB hits
system.switch_cpus.itb.data_misses                  0                       # DTB misses
system.switch_cpus.itb.data_acv                     0                       # DTB access violations
system.switch_cpus.itb.data_accesses                0                       # DTB accesses
system.cpu.workload.num_syscalls                  503                       # Number of system calls
system.switch_cpus.numCycles                369821627                       # number of cpu cycles simulated
system.switch_cpus.numWorkItemsStarted              0                       # number of work items this cpu started
system.switch_cpus.numWorkItemsCompleted            0                       # number of work items this cpu completed
system.switch_cpus.fetch.icacheStallCycles     77448923                       # Number of cycles fetch is stalled on an Icache miss
system.switch_cpus.fetch.Insts              878425826                       # Number of instructions fetch has processed
system.switch_cpus.fetch.Branches            28915420                       # Number of branches that fetch encountered
system.switch_cpus.fetch.predictedBranches     27816337                       # Number of branches that fetch has predicted taken
system.switch_cpus.fetch.Cycles             128290982                       # Number of cycles fetch has run and was not squashing or blocked
system.switch_cpus.fetch.SquashCycles          158437                       # Number of cycles fetch has spent squashing
system.switch_cpus.fetch.BlockedCycles      131969714                       # Number of cycles fetch has spent blocked
system.switch_cpus.fetch.MiscStallCycles           63                       # Number of cycles fetch has spent waiting on interrupts, or bad addresses, or out of MSHRs
system.switch_cpus.fetch.PendingTrapStallCycles         1532                       # Number of stall cycles due to pending traps
system.switch_cpus.fetch.IcacheWaitRetryStallCycles           48                       # Number of stall cycles due to full MSHR
system.switch_cpus.fetch.CacheLines          77407029                       # Number of cache lines fetched
system.switch_cpus.fetch.IcacheSquashes          7229                       # Number of outstanding Icache misses that were squashed
system.switch_cpus.fetch.rateDist::samples    337839455                       # Number of instructions fetched each cycle (Total)
system.switch_cpus.fetch.rateDist::mean      2.600128                       # Number of instructions fetched each cycle (Total)
system.switch_cpus.fetch.rateDist::stdev     3.577972                       # Number of instructions fetched each cycle (Total)
system.switch_cpus.fetch.rateDist::underflows            0      0.00%      0.00% # Number of instructions fetched each cycle (Total)
system.switch_cpus.fetch.rateDist::0        209548473     62.03%     62.03% # Number of instructions fetched each cycle (Total)
system.switch_cpus.fetch.rateDist::1          4471845      1.32%     63.35% # Number of instructions fetched each cycle (Total)
system.switch_cpus.fetch.rateDist::2          8510406      2.52%     65.87% # Number of instructions fetched each cycle (Total)
system.switch_cpus.fetch.rateDist::3          4218481      1.25%     67.12% # Number of instructions fetched each cycle (Total)
system.switch_cpus.fetch.rateDist::4          5090570      1.51%     68.62% # Number of instructions fetched each cycle (Total)
system.switch_cpus.fetch.rateDist::5          2643215      0.78%     69.41% # Number of instructions fetched each cycle (Total)
system.switch_cpus.fetch.rateDist::6          6231487      1.84%     71.25% # Number of instructions fetched each cycle (Total)
system.switch_cpus.fetch.rateDist::7          3689375      1.09%     72.34% # Number of instructions fetched each cycle (Total)
system.switch_cpus.fetch.rateDist::8         93435603     27.66%    100.00% # Number of instructions fetched each cycle (Total)
system.switch_cpus.fetch.rateDist::overflows            0      0.00%    100.00% # Number of instructions fetched each cycle (Total)
system.switch_cpus.fetch.rateDist::min_value            0                       # Number of instructions fetched each cycle (Total)
system.switch_cpus.fetch.rateDist::max_value            8                       # Number of instructions fetched each cycle (Total)
system.switch_cpus.fetch.rateDist::total    337839455                       # Number of instructions fetched each cycle (Total)
system.switch_cpus.fetch.branchRate          0.078187                       # Number of branch fetches per cycle
system.switch_cpus.fetch.rate                2.375269                       # Number of inst fetches per cycle
system.switch_cpus.decode.IdleCycles        105270895                       # Number of cycles decode is idle
system.switch_cpus.decode.BlockedCycles     104162607                       # Number of cycles decode is blocked
system.switch_cpus.decode.RunCycles         105582266                       # Number of cycles decode is running
system.switch_cpus.decode.UnblockCycles      22695967                       # Number of cycles decode is unblocking
system.switch_cpus.decode.SquashCycles         127719                       # Number of cycles decode is squashing
system.switch_cpus.decode.BranchResolved      9461768                       # Number of times decode resolved a branch
system.switch_cpus.decode.BranchMispred           487                       # Number of times decode detected a branch misprediction
system.switch_cpus.decode.DecodedInsts      878333290                       # Number of instructions handled by decode
system.switch_cpus.decode.SquashedInsts          1552                       # Number of squashed instructions handled by decode
system.switch_cpus.rename.SquashCycles         127719                       # Number of cycles rename is squashing
system.switch_cpus.rename.IdleCycles        112529246                       # Number of cycles rename is idle
system.switch_cpus.rename.BlockCycles        45597226                       # Number of cycles rename is blocking
system.switch_cpus.rename.serializeStallCycles       371244                       # count of cycles rename stalled for serializing inst
system.switch_cpus.rename.RunCycles         121073477                       # Number of cycles rename is running
system.switch_cpus.rename.UnblockCycles      58140542                       # Number of cycles rename is unblocking
system.switch_cpus.rename.RenamedInsts      878198757                       # Number of instructions processed by rename
system.switch_cpus.rename.ROBFullEvents            29                       # Number of times rename has blocked due to ROB full
system.switch_cpus.rename.IQFullEvents          25042                       # Number of times rename has blocked due to IQ full
system.switch_cpus.rename.LSQFullEvents      53459955                       # Number of times rename has blocked due to LSQ full
system.switch_cpus.rename.RenamedOperands    749239230                       # Number of destination operands rename has renamed
system.switch_cpus.rename.RenameLookups    1228550237                       # Number of register rename lookups that rename has made
system.switch_cpus.rename.int_rename_lookups    855110157                       # Number of integer rename lookups
system.switch_cpus.rename.fp_rename_lookups    373440080                       # Number of floating rename lookups
system.switch_cpus.rename.CommittedMaps     748287981                       # Number of HB maps that are committed
system.switch_cpus.rename.UndoneMaps           951249                       # Number of HB maps that are undone due to squashing
system.switch_cpus.rename.serializingInsts         5817                       # count of serializing insts renamed
system.switch_cpus.rename.tempSerializingInsts         3733                       # count of temporary serializing insts renamed
system.switch_cpus.rename.skidInsts         174997512                       # count of insts added to the skid buffer
system.switch_cpus.memDep0.insertedLoads    242357447                       # Number of loads inserted to the mem dependence unit.
system.switch_cpus.memDep0.insertedStores     81140821                       # Number of stores inserted to the mem dependence unit.
system.switch_cpus.memDep0.conflictingLoads     31759290                       # Number of conflicting loads.
system.switch_cpus.memDep0.conflictingStores      2432913                       # Number of conflicting stores.
system.switch_cpus.iq.iqInstsAdded          849710269                       # Number of instructions added to the IQ (excludes non-spec)
system.switch_cpus.iq.iqNonSpecInstsAdded         6892                       # Number of non-speculative instructions added to the IQ
system.switch_cpus.iq.iqInstsIssued         849306085                       # Number of instructions issued
system.switch_cpus.iq.iqSquashedInstsIssued        11733                       # Number of squashed instructions issued
system.switch_cpus.iq.iqSquashedInstsExamined       949807                       # Number of squashed instructions iterated over during squash; mainly for profiling
system.switch_cpus.iq.iqSquashedOperandsExamined       768871                       # Number of squashed operands that are examined and possibly removed from graph
system.switch_cpus.iq.iqSquashedNonSpecRemoved          130                       # Number of squashed non-spec instructions that were removed
system.switch_cpus.iq.issued_per_cycle::samples    337839455                       # Number of insts issued each cycle
system.switch_cpus.iq.issued_per_cycle::mean     2.513934                       # Number of insts issued each cycle
system.switch_cpus.iq.issued_per_cycle::stdev     1.590038                       # Number of insts issued each cycle
system.switch_cpus.iq.issued_per_cycle::underflows            0      0.00%      0.00% # Number of insts issued each cycle
system.switch_cpus.iq.issued_per_cycle::0     35368777     10.47%     10.47% # Number of insts issued each cycle
system.switch_cpus.iq.issued_per_cycle::1     63106455     18.68%     29.15% # Number of insts issued each cycle
system.switch_cpus.iq.issued_per_cycle::2     77648846     22.98%     52.13% # Number of insts issued each cycle
system.switch_cpus.iq.issued_per_cycle::3     70392148     20.84%     72.97% # Number of insts issued each cycle
system.switch_cpus.iq.issued_per_cycle::4     50025463     14.81%     87.78% # Number of insts issued each cycle
system.switch_cpus.iq.issued_per_cycle::5     30182908      8.93%     96.71% # Number of insts issued each cycle
system.switch_cpus.iq.issued_per_cycle::6      9407949      2.78%     99.49% # Number of insts issued each cycle
system.switch_cpus.iq.issued_per_cycle::7      1393864      0.41%     99.91% # Number of insts issued each cycle
system.switch_cpus.iq.issued_per_cycle::8       313045      0.09%    100.00% # Number of insts issued each cycle
system.switch_cpus.iq.issued_per_cycle::overflows            0      0.00%    100.00% # Number of insts issued each cycle
system.switch_cpus.iq.issued_per_cycle::min_value            0                       # Number of insts issued each cycle
system.switch_cpus.iq.issued_per_cycle::max_value            8                       # Number of insts issued each cycle
system.switch_cpus.iq.issued_per_cycle::total    337839455                       # Number of insts issued each cycle
system.switch_cpus.iq.fu_full::No_OpClass            0      0.00%      0.00% # attempts to use FU when none available
system.switch_cpus.iq.fu_full::IntAlu           44781      0.42%      0.42% # attempts to use FU when none available
system.switch_cpus.iq.fu_full::IntMult              0      0.00%      0.42% # attempts to use FU when none available
system.switch_cpus.iq.fu_full::IntDiv               0      0.00%      0.42% # attempts to use FU when none available
system.switch_cpus.iq.fu_full::FloatAdd             0      0.00%      0.42% # attempts to use FU when none available
system.switch_cpus.iq.fu_full::FloatCmp             0      0.00%      0.42% # attempts to use FU when none available
system.switch_cpus.iq.fu_full::FloatCvt       1462582     13.64%     14.05% # attempts to use FU when none available
system.switch_cpus.iq.fu_full::FloatMult       747203      6.97%     21.02% # attempts to use FU when none available
system.switch_cpus.iq.fu_full::FloatDiv             0      0.00%     21.02% # attempts to use FU when none available
system.switch_cpus.iq.fu_full::FloatSqrt            0      0.00%     21.02% # attempts to use FU when none available
system.switch_cpus.iq.fu_full::SimdAdd              0      0.00%     21.02% # attempts to use FU when none available
system.switch_cpus.iq.fu_full::SimdAddAcc            0      0.00%     21.02% # attempts to use FU when none available
system.switch_cpus.iq.fu_full::SimdAlu              0      0.00%     21.02% # attempts to use FU when none available
system.switch_cpus.iq.fu_full::SimdCmp              0      0.00%     21.02% # attempts to use FU when none available
system.switch_cpus.iq.fu_full::SimdCvt              0      0.00%     21.02% # attempts to use FU when none available
system.switch_cpus.iq.fu_full::SimdMisc             0      0.00%     21.02% # attempts to use FU when none available
system.switch_cpus.iq.fu_full::SimdMult             0      0.00%     21.02% # attempts to use FU when none available
system.switch_cpus.iq.fu_full::SimdMultAcc            0      0.00%     21.02% # attempts to use FU when none available
system.switch_cpus.iq.fu_full::SimdShift            0      0.00%     21.02% # attempts to use FU when none available
system.switch_cpus.iq.fu_full::SimdShiftAcc            0      0.00%     21.02% # attempts to use FU when none available
system.switch_cpus.iq.fu_full::SimdSqrt             0      0.00%     21.02% # attempts to use FU when none available
system.switch_cpus.iq.fu_full::SimdFloatAdd            0      0.00%     21.02% # attempts to use FU when none available
system.switch_cpus.iq.fu_full::SimdFloatAlu            0      0.00%     21.02% # attempts to use FU when none available
system.switch_cpus.iq.fu_full::SimdFloatCmp            0      0.00%     21.02% # attempts to use FU when none available
system.switch_cpus.iq.fu_full::SimdFloatCvt            0      0.00%     21.02% # attempts to use FU when none available
system.switch_cpus.iq.fu_full::SimdFloatDiv            0      0.00%     21.02% # attempts to use FU when none available
system.switch_cpus.iq.fu_full::SimdFloatMisc            0      0.00%     21.02% # attempts to use FU when none available
system.switch_cpus.iq.fu_full::SimdFloatMult            0      0.00%     21.02% # attempts to use FU when none available
system.switch_cpus.iq.fu_full::SimdFloatMultAcc            0      0.00%     21.02% # attempts to use FU when none available
system.switch_cpus.iq.fu_full::SimdFloatSqrt            0      0.00%     21.02% # attempts to use FU when none available
system.switch_cpus.iq.fu_full::MemRead        4025733     37.53%     58.55% # attempts to use FU when none available
system.switch_cpus.iq.fu_full::MemWrite       4445815     41.45%    100.00% # attempts to use FU when none available
system.switch_cpus.iq.fu_full::IprAccess            0      0.00%    100.00% # attempts to use FU when none available
system.switch_cpus.iq.fu_full::InstPrefetch            0      0.00%    100.00% # attempts to use FU when none available
system.switch_cpus.iq.FU_type_0::No_OpClass          393      0.00%      0.00% # Type of FU issued
system.switch_cpus.iq.FU_type_0::IntAlu     299334463     35.24%     35.24% # Type of FU issued
system.switch_cpus.iq.FU_type_0::IntMult     18887804      2.22%     37.47% # Type of FU issued
system.switch_cpus.iq.FU_type_0::IntDiv             0      0.00%     37.47% # Type of FU issued
system.switch_cpus.iq.FU_type_0::FloatAdd    127957166     15.07%     52.53% # Type of FU issued
system.switch_cpus.iq.FU_type_0::FloatCmp            3      0.00%     52.53% # Type of FU issued
system.switch_cpus.iq.FU_type_0::FloatCvt     48252098      5.68%     58.22% # Type of FU issued
system.switch_cpus.iq.FU_type_0::FloatMult     28320074      3.33%     61.55% # Type of FU issued
system.switch_cpus.iq.FU_type_0::FloatDiv      3147062      0.37%     61.92% # Type of FU issued
system.switch_cpus.iq.FU_type_0::FloatSqrt            0      0.00%     61.92% # Type of FU issued
system.switch_cpus.iq.FU_type_0::SimdAdd            0      0.00%     61.92% # Type of FU issued
system.switch_cpus.iq.FU_type_0::SimdAddAcc            0      0.00%     61.92% # Type of FU issued
system.switch_cpus.iq.FU_type_0::SimdAlu            0      0.00%     61.92% # Type of FU issued
system.switch_cpus.iq.FU_type_0::SimdCmp            0      0.00%     61.92% # Type of FU issued
system.switch_cpus.iq.FU_type_0::SimdCvt            0      0.00%     61.92% # Type of FU issued
system.switch_cpus.iq.FU_type_0::SimdMisc            0      0.00%     61.92% # Type of FU issued
system.switch_cpus.iq.FU_type_0::SimdMult            0      0.00%     61.92% # Type of FU issued
system.switch_cpus.iq.FU_type_0::SimdMultAcc            0      0.00%     61.92% # Type of FU issued
system.switch_cpus.iq.FU_type_0::SimdShift            0      0.00%     61.92% # Type of FU issued
system.switch_cpus.iq.FU_type_0::SimdShiftAcc            0      0.00%     61.92% # Type of FU issued
system.switch_cpus.iq.FU_type_0::SimdSqrt            0      0.00%     61.92% # Type of FU issued
system.switch_cpus.iq.FU_type_0::SimdFloatAdd            0      0.00%     61.92% # Type of FU issued
system.switch_cpus.iq.FU_type_0::SimdFloatAlu            0      0.00%     61.92% # Type of FU issued
system.switch_cpus.iq.FU_type_0::SimdFloatCmp            0      0.00%     61.92% # Type of FU issued
system.switch_cpus.iq.FU_type_0::SimdFloatCvt            0      0.00%     61.92% # Type of FU issued
system.switch_cpus.iq.FU_type_0::SimdFloatDiv            0      0.00%     61.92% # Type of FU issued
system.switch_cpus.iq.FU_type_0::SimdFloatMisc            0      0.00%     61.92% # Type of FU issued
system.switch_cpus.iq.FU_type_0::SimdFloatMult            0      0.00%     61.92% # Type of FU issued
system.switch_cpus.iq.FU_type_0::SimdFloatMultAcc            0      0.00%     61.92% # Type of FU issued
system.switch_cpus.iq.FU_type_0::SimdFloatSqrt            0      0.00%     61.92% # Type of FU issued
system.switch_cpus.iq.FU_type_0::MemRead    242310498     28.53%     90.45% # Type of FU issued
system.switch_cpus.iq.FU_type_0::MemWrite     81096524      9.55%    100.00% # Type of FU issued
system.switch_cpus.iq.FU_type_0::IprAccess            0      0.00%    100.00% # Type of FU issued
system.switch_cpus.iq.FU_type_0::InstPrefetch            0      0.00%    100.00% # Type of FU issued
system.switch_cpus.iq.FU_type_0::total      849306085                       # Type of FU issued
system.switch_cpus.iq.rate                   2.296529                       # Inst issue rate
system.switch_cpus.iq.fu_busy_cnt            10726114                       # FU busy when requested
system.switch_cpus.iq.fu_busy_rate           0.012629                       # FU busy rate (busy events/executed inst)
system.switch_cpus.iq.int_inst_queue_reads   1520513610                       # Number of integer instruction queue reads
system.switch_cpus.iq.int_inst_queue_writes    588346381                       # Number of integer instruction queue writes
system.switch_cpus.iq.int_inst_queue_wakeup_accesses    586990515                       # Number of integer instruction queue wakeup accesses
system.switch_cpus.iq.fp_inst_queue_reads    526675862                       # Number of floating instruction queue reads
system.switch_cpus.iq.fp_inst_queue_writes    262332666                       # Number of floating instruction queue writes
system.switch_cpus.iq.fp_inst_queue_wakeup_accesses    262222895                       # Number of floating instruction queue wakeup accesses
system.switch_cpus.iq.int_alu_accesses      595587863                       # Number of integer alu accesses
system.switch_cpus.iq.fp_alu_accesses       264443943                       # Number of floating point alu accesses
system.switch_cpus.iew.lsq.thread0.forwLoads     32694832                       # Number of loads that had data forwarded from stores
system.switch_cpus.iew.lsq.thread0.invAddrLoads            0                       # Number of loads ignored due to an invalid address
system.switch_cpus.iew.lsq.thread0.squashedLoads       306891                       # Number of loads squashed
system.switch_cpus.iew.lsq.thread0.ignoredResponses          707                       # Number of memory responses ignored because the instruction is squashed
system.switch_cpus.iew.lsq.thread0.memOrderViolation        12192                       # Number of memory ordering violations
system.switch_cpus.iew.lsq.thread0.squashedStores        93907                       # Number of stores squashed
system.switch_cpus.iew.lsq.thread0.invAddrSwpfs            0                       # Number of software prefetches ignored due to an invalid address
system.switch_cpus.iew.lsq.thread0.blockedLoads            0                       # Number of blocked loads due to partial load-store forwarding
system.switch_cpus.iew.lsq.thread0.rescheduledLoads           15                       # Number of loads that were rescheduled
system.switch_cpus.iew.lsq.thread0.cacheBlocked          767                       # Number of times an access to memory failed due to the cache being blocked
system.switch_cpus.iew.iewIdleCycles                0                       # Number of cycles IEW is idle
system.switch_cpus.iew.iewSquashCycles         127719                       # Number of cycles IEW is squashing
system.switch_cpus.iew.iewBlockCycles        13369100                       # Number of cycles IEW is blocking
system.switch_cpus.iew.iewUnblockCycles       1042602                       # Number of cycles IEW is unblocking
system.switch_cpus.iew.iewDispatchedInsts    878054894                       # Number of instructions dispatched to IQ
system.switch_cpus.iew.iewDispSquashedInsts         5712                       # Number of squashed instructions skipped by dispatch
system.switch_cpus.iew.iewDispLoadInsts     242357447                       # Number of dispatched load instructions
system.switch_cpus.iew.iewDispStoreInsts     81140821                       # Number of dispatched store instructions
system.switch_cpus.iew.iewDispNonSpecInsts         3730                       # Number of dispatched non-speculative instructions
system.switch_cpus.iew.iewIQFullEvents          37551                       # Number of times the IQ has become full, causing a stall
system.switch_cpus.iew.iewLSQFullEvents         84280                       # Number of times the LSQ has become full, causing a stall
system.switch_cpus.iew.memOrderViolationEvents        12192                       # Number of memory order violations
system.switch_cpus.iew.predictedTakenIncorrect        10189                       # Number of branches that were predicted taken incorrectly
system.switch_cpus.iew.predictedNotTakenIncorrect         4143                       # Number of branches that were predicted not taken incorrectly
system.switch_cpus.iew.branchMispredicts        14332                       # Number of branch mispredicts detected at execute
system.switch_cpus.iew.iewExecutedInsts     849262919                       # Number of executed instructions
system.switch_cpus.iew.iewExecLoadInsts     242282499                       # Number of load instructions executed
system.switch_cpus.iew.iewExecSquashedInsts        43166                       # Number of squashed instructions skipped in execute
system.switch_cpus.iew.exec_swp                     0                       # number of swp insts executed
system.switch_cpus.iew.exec_nop              28337733                       # number of nop insts executed
system.switch_cpus.iew.exec_refs            323374940                       # number of memory reference insts executed
system.switch_cpus.iew.exec_branches         28892174                       # Number of branches executed
system.switch_cpus.iew.exec_stores           81092441                       # Number of stores executed
system.switch_cpus.iew.exec_rate             2.296412                       # Inst execution rate
system.switch_cpus.iew.wb_sent              849236058                       # cumulative count of insts sent to commit
system.switch_cpus.iew.wb_count             849213410                       # cumulative count of insts written-back
system.switch_cpus.iew.wb_producers         723378591                       # num instructions producing a value
system.switch_cpus.iew.wb_consumers         816053526                       # num instructions consuming a value
system.switch_cpus.iew.wb_penalized                 0                       # number of instrctions required to write to 'other' IQ
system.switch_cpus.iew.wb_rate               2.296278                       # insts written-back per cycle
system.switch_cpus.iew.wb_fanout             0.886435                       # average fanout of values written-back
system.switch_cpus.iew.wb_penalized_rate            0                       # fraction of instructions written-back that wrote to 'other' IQ
system.switch_cpus.commit.commitSquashedInsts       876786                       # The number of squashed insts skipped by commit
system.switch_cpus.commit.commitNonSpecStalls         6762                       # The number of times commit has been forced to stall to communicate backwards
system.switch_cpus.commit.branchMispredicts        13349                       # The number of times a branch was mispredicted
system.switch_cpus.commit.committed_per_cycle::samples    337711736                       # Number of insts commited each cycle
system.switch_cpus.commit.committed_per_cycle::mean     2.597158                       # Number of insts commited each cycle
system.switch_cpus.commit.committed_per_cycle::stdev     3.281980                       # Number of insts commited each cycle
system.switch_cpus.commit.committed_per_cycle::underflows            0      0.00%      0.00% # Number of insts commited each cycle
system.switch_cpus.commit.committed_per_cycle::0    132475060     39.23%     39.23% # Number of insts commited each cycle
system.switch_cpus.commit.committed_per_cycle::1     87632607     25.95%     65.18% # Number of insts commited each cycle
system.switch_cpus.commit.committed_per_cycle::2     11691581      3.46%     68.64% # Number of insts commited each cycle
system.switch_cpus.commit.committed_per_cycle::3      5931069      1.76%     70.39% # Number of insts commited each cycle
system.switch_cpus.commit.committed_per_cycle::4      5691672      1.69%     72.08% # Number of insts commited each cycle
system.switch_cpus.commit.committed_per_cycle::5      3771274      1.12%     73.20% # Number of insts commited each cycle
system.switch_cpus.commit.committed_per_cycle::6      5797254      1.72%     74.91% # Number of insts commited each cycle
system.switch_cpus.commit.committed_per_cycle::7      5894496      1.75%     76.66% # Number of insts commited each cycle
system.switch_cpus.commit.committed_per_cycle::8     78826723     23.34%    100.00% # Number of insts commited each cycle
system.switch_cpus.commit.committed_per_cycle::overflows            0      0.00%    100.00% # Number of insts commited each cycle
system.switch_cpus.commit.committed_per_cycle::min_value            0                       # Number of insts commited each cycle
system.switch_cpus.commit.committed_per_cycle::max_value            8                       # Number of insts commited each cycle
system.switch_cpus.commit.committed_per_cycle::total    337711736                       # Number of insts commited each cycle
system.switch_cpus.commit.committedInsts    877090814                       # Number of instructions committed
system.switch_cpus.commit.committedOps      877090814                       # Number of ops (including micro ops) committed
system.switch_cpus.commit.swp_count                 0                       # Number of s/w prefetches committed
system.switch_cpus.commit.refs              323097470                       # Number of memory references committed
system.switch_cpus.commit.loads             242050556                       # Number of loads committed
system.switch_cpus.commit.membars                3127                       # Number of memory barriers committed
system.switch_cpus.commit.branches           28869639                       # Number of branches committed
system.switch_cpus.commit.fp_insts          262150420                       # Number of committed floating point instructions.
system.switch_cpus.commit.int_insts         689356941                       # Number of committed integer instructions.
system.switch_cpus.commit.function_calls      9447851                       # Number of function calls committed.
system.switch_cpus.commit.bw_lim_events      78826723                       # number cycles where commit BW limit reached
system.switch_cpus.commit.bw_limited                0                       # number of insts not committed due to BW limits
system.switch_cpus.rob.rob_reads           1136798533                       # The number of ROB reads
system.switch_cpus.rob.rob_writes          1756063242                       # The number of ROB writes
system.switch_cpus.timesIdled                  489530                       # Number of times that the entire CPU went into an idle state and unscheduled itself
system.switch_cpus.idleCycles                31982172                       # Total number of cycles that the CPU has spent unscheduled due to idling
system.switch_cpus.committedInsts           848757582                       # Number of Instructions Simulated
system.switch_cpus.committedOps             848757582                       # Number of Ops (including micro ops) Simulated
system.switch_cpus.committedInsts_total     848757582                       # Number of Instructions Simulated
system.switch_cpus.cpi                       0.435721                       # CPI: Cycles Per Instruction
system.switch_cpus.cpi_total                 0.435721                       # CPI: Total CPI of All Threads
system.switch_cpus.ipc                       2.295046                       # IPC: Instructions Per Cycle
system.switch_cpus.ipc_total                 2.295046                       # IPC: Total IPC of All Threads
system.switch_cpus.int_regfile_reads        949653741                       # number of integer regfile reads
system.switch_cpus.int_regfile_writes       502208649                       # number of integer regfile writes
system.switch_cpus.fp_regfile_reads         277934578                       # number of floating regfile reads
system.switch_cpus.fp_regfile_writes        246488449                       # number of floating regfile writes
system.switch_cpus.misc_regfile_reads         8396474                       # number of misc regfile reads
system.switch_cpus.misc_regfile_writes           6255                       # number of misc regfile writes
system.l2.tags.replacements                    485097                       # number of replacements
system.l2.tags.tagsinuse                  8005.936793                       # Cycle average of tags in use
system.l2.tags.total_refs                      225602                       # Total number of references to valid blocks.
system.l2.tags.sampled_refs                    493265                       # Sample count of references to valid blocks.
system.l2.tags.avg_refs                      0.457365                       # Average number of references to valid blocks.
system.l2.tags.warmup_cycle                         0                       # Cycle when the warmup percentage was hit.
system.l2.tags.occ_blocks::writebacks     5540.225690                       # Average occupied blocks per requestor
system.l2.tags.occ_blocks::switch_cpus.inst     7.362215                       # Average occupied blocks per requestor
system.l2.tags.occ_blocks::switch_cpus.data  2457.353555                       # Average occupied blocks per requestor
system.l2.tags.occ_blocks::cpu.inst          0.791107                       # Average occupied blocks per requestor
system.l2.tags.occ_blocks::cpu.data          0.204226                       # Average occupied blocks per requestor
system.l2.tags.occ_percent::writebacks       0.676297                       # Average percentage of cache occupancy
system.l2.tags.occ_percent::switch_cpus.inst     0.000899                       # Average percentage of cache occupancy
system.l2.tags.occ_percent::switch_cpus.data     0.299970                       # Average percentage of cache occupancy
system.l2.tags.occ_percent::cpu.inst         0.000097                       # Average percentage of cache occupancy
system.l2.tags.occ_percent::cpu.data         0.000025                       # Average percentage of cache occupancy
system.l2.tags.occ_percent::total            0.977287                       # Average percentage of cache occupancy
system.l2.ReadReq_hits::switch_cpus.inst           75                       # number of ReadReq hits
system.l2.ReadReq_hits::switch_cpus.data       140630                       # number of ReadReq hits
system.l2.ReadReq_hits::total                  140705                       # number of ReadReq hits
system.l2.Writeback_hits::writebacks           330890                       # number of Writeback hits
system.l2.Writeback_hits::total                330890                       # number of Writeback hits
system.l2.ReadExReq_hits::switch_cpus.data        52966                       # number of ReadExReq hits
system.l2.ReadExReq_hits::total                 52966                       # number of ReadExReq hits
system.l2.demand_hits::switch_cpus.inst            75                       # number of demand (read+write) hits
system.l2.demand_hits::switch_cpus.data        193596                       # number of demand (read+write) hits
system.l2.demand_hits::total                   193671                       # number of demand (read+write) hits
system.l2.overall_hits::switch_cpus.inst           75                       # number of overall hits
system.l2.overall_hits::switch_cpus.data       193596                       # number of overall hits
system.l2.overall_hits::total                  193671                       # number of overall hits
system.l2.ReadReq_misses::switch_cpus.inst          979                       # number of ReadReq misses
system.l2.ReadReq_misses::switch_cpus.data       246038                       # number of ReadReq misses
system.l2.ReadReq_misses::total                247017                       # number of ReadReq misses
system.l2.ReadExReq_misses::switch_cpus.data       245987                       # number of ReadExReq misses
system.l2.ReadExReq_misses::total              245987                       # number of ReadExReq misses
system.l2.demand_misses::switch_cpus.inst          979                       # number of demand (read+write) misses
system.l2.demand_misses::switch_cpus.data       492025                       # number of demand (read+write) misses
system.l2.demand_misses::total                 493004                       # number of demand (read+write) misses
system.l2.overall_misses::switch_cpus.inst          979                       # number of overall misses
system.l2.overall_misses::switch_cpus.data       492025                       # number of overall misses
system.l2.overall_misses::total                493004                       # number of overall misses
system.l2.ReadReq_miss_latency::switch_cpus.inst     65692000                       # number of ReadReq miss cycles
system.l2.ReadReq_miss_latency::switch_cpus.data  15044689250                       # number of ReadReq miss cycles
system.l2.ReadReq_miss_latency::total     15110381250                       # number of ReadReq miss cycles
system.l2.ReadExReq_miss_latency::switch_cpus.data  15348177500                       # number of ReadExReq miss cycles
system.l2.ReadExReq_miss_latency::total   15348177500                       # number of ReadExReq miss cycles
system.l2.demand_miss_latency::switch_cpus.inst     65692000                       # number of demand (read+write) miss cycles
system.l2.demand_miss_latency::switch_cpus.data  30392866750                       # number of demand (read+write) miss cycles
system.l2.demand_miss_latency::total      30458558750                       # number of demand (read+write) miss cycles
system.l2.overall_miss_latency::switch_cpus.inst     65692000                       # number of overall miss cycles
system.l2.overall_miss_latency::switch_cpus.data  30392866750                       # number of overall miss cycles
system.l2.overall_miss_latency::total     30458558750                       # number of overall miss cycles
system.l2.ReadReq_accesses::switch_cpus.inst         1054                       # number of ReadReq accesses(hits+misses)
system.l2.ReadReq_accesses::switch_cpus.data       386668                       # number of ReadReq accesses(hits+misses)
system.l2.ReadReq_accesses::total              387722                       # number of ReadReq accesses(hits+misses)
system.l2.Writeback_accesses::writebacks       330890                       # number of Writeback accesses(hits+misses)
system.l2.Writeback_accesses::total            330890                       # number of Writeback accesses(hits+misses)
system.l2.ReadExReq_accesses::switch_cpus.data       298953                       # number of ReadExReq accesses(hits+misses)
system.l2.ReadExReq_accesses::total            298953                       # number of ReadExReq accesses(hits+misses)
system.l2.demand_accesses::switch_cpus.inst         1054                       # number of demand (read+write) accesses
[...]
system.cpu.icache.overall_mshr_hits::total          412                       # number of overall MSHR hits
system.cpu.icache.ReadReq_mshr_misses::switch_cpus.inst         1054                       # number of ReadReq MSHR misses
system.cpu.icache.ReadReq_mshr_misses::total         1054                       # number of ReadReq MSHR misses
system.cpu.icache.demand_mshr_misses::switch_cpus.inst         1054                       # number of demand (read+write) MSHR misses
system.cpu.icache.demand_mshr_misses::total         1054                       # number of demand (read+write) MSHR misses
system.cpu.icache.overall_mshr_misses::switch_cpus.inst         1054                       # number of overall MSHR misses
system.cpu.icache.overall_mshr_misses::total         1054                       # number of overall MSHR misses
system.cpu.icache.ReadReq_mshr_miss_latency::switch_cpus.inst     67507000                       # number of ReadReq MSHR miss cycles
system.cpu.icache.ReadReq_mshr_miss_latency::total     67507000                       # number of ReadReq MSHR miss cycles
system.cpu.icache.demand_mshr_miss_latency::switch_cpus.inst     67507000                       # number of demand (read+write) MSHR miss cycles
system.cpu.icache.demand_mshr_miss_latency::total     67507000                       # number of demand (read+write) MSHR miss cycles
system.cpu.icache.overall_mshr_miss_latency::switch_cpus.inst     67507000                       # number of overall MSHR miss cycles
system.cpu.icache.overall_mshr_miss_latency::total     67507000                       # number of overall MSHR miss cycles
system.cpu.icache.ReadReq_mshr_miss_rate::switch_cpus.inst     0.000014                       # mshr miss rate for ReadReq accesses
system.cpu.icache.ReadReq_mshr_miss_rate::total     0.000014                       # mshr miss rate for ReadReq accesses
system.cpu.icache.demand_mshr_miss_rate::switch_cpus.inst     0.000014                       # mshr miss rate for demand accesses
system.cpu.icache.demand_mshr_miss_rate::total     0.000014                       # mshr miss rate for demand accesses
system.cpu.icache.overall_mshr_miss_rate::switch_cpus.inst     0.000014                       # mshr miss rate for overall accesses
system.cpu.icache.overall_mshr_miss_rate::total     0.000014                       # mshr miss rate for overall accesses
system.cpu.icache.ReadReq_avg_mshr_miss_latency::switch_cpus.inst 64048.387097                       # average ReadReq mshr miss latency
system.cpu.icache.ReadReq_avg_mshr_miss_latency::total 64048.387097                       # average ReadReq mshr miss latency
system.cpu.icache.demand_avg_mshr_miss_latency::switch_cpus.inst 64048.387097                       # average overall mshr miss latency
system.cpu.icache.demand_avg_mshr_miss_latency::total 64048.387097                       # average overall mshr miss latency
system.cpu.icache.overall_avg_mshr_miss_latency::switch_cpus.inst 64048.387097                       # average overall mshr miss latency
system.cpu.icache.overall_avg_mshr_miss_latency::total 64048.387097                       # average overall mshr miss latency
system.cpu.icache.no_allocate_misses                0                       # Number of misses that were no-allocate
system.cpu.dcache.tags.replacements            685239                       # number of replacements
system.cpu.dcache.tags.tagsinuse           459.852673                       # Cycle average of tags in use
system.cpu.dcache.tags.total_refs           288256620                       # Total number of references to valid blocks.
system.cpu.dcache.tags.sampled_refs            685699                       # Sample count of references to valid blocks.
system.cpu.dcache.tags.avg_refs            420.383609                       # Average number of references to valid blocks.
system.cpu.dcache.tags.warmup_cycle                 0                       # Cycle when the warmup percentage was hit.
system.cpu.dcache.tags.occ_blocks::switch_cpus.data   459.836447                       # Average occupied blocks per requestor
system.cpu.dcache.tags.occ_blocks::cpu.data     0.016226                       # Average occupied blocks per requestor
system.cpu.dcache.tags.occ_percent::switch_cpus.data     0.898118                       # Average percentage of cache occupancy
system.cpu.dcache.tags.occ_percent::cpu.data     0.000032                       # Average percentage of cache occupancy
system.cpu.dcache.tags.occ_percent::total     0.898150                       # Average percentage of cache occupancy
system.cpu.dcache.ReadReq_hits::switch_cpus.data    208261381                       # number of ReadReq hits
system.cpu.dcache.ReadReq_hits::total       208261381                       # number of ReadReq hits
system.cpu.dcache.WriteReq_hits::switch_cpus.data     79990026                       # number of WriteReq hits
system.cpu.dcache.WriteReq_hits::total       79990026                       # number of WriteReq hits
system.cpu.dcache.LoadLockedReq_hits::switch_cpus.data         1585                       # number of LoadLockedReq hits
system.cpu.dcache.LoadLockedReq_hits::total         1585                       # number of LoadLockedReq hits
system.cpu.dcache.StoreCondReq_hits::switch_cpus.data         3127                       # number of StoreCondReq hits
system.cpu.dcache.StoreCondReq_hits::total         3127                       # number of StoreCondReq hits
system.cpu.dcache.demand_hits::switch_cpus.data    288251407                       # number of demand (read+write) hits
system.cpu.dcache.demand_hits::total        288251407                       # number of demand (read+write) hits
system.cpu.dcache.overall_hits::switch_cpus.data    288251407                       # number of overall hits
system.cpu.dcache.overall_hits::total       288251407                       # number of overall hits
system.cpu.dcache.ReadReq_misses::switch_cpus.data      1317860                       # number of ReadReq misses
system.cpu.dcache.ReadReq_misses::total       1317860                       # number of ReadReq misses
system.cpu.dcache.WriteReq_misses::switch_cpus.data      1053761                       # number of WriteReq misses
system.cpu.dcache.WriteReq_misses::total      1053761                       # number of WriteReq misses
system.cpu.dcache.LoadLockedReq_misses::switch_cpus.data         1542                       # number of LoadLockedReq misses
system.cpu.dcache.LoadLockedReq_misses::total         1542                       # number of LoadLockedReq misses
system.cpu.dcache.demand_misses::switch_cpus.data      2371621                       # number of demand (read+write) misses
system.cpu.dcache.demand_misses::total        2371621                       # number of demand (read+write) misses
system.cpu.dcache.overall_misses::switch_cpus.data      2371621                       # number of overall misses
system.cpu.dcache.overall_misses::total       2371621                       # number of overall misses
system.cpu.dcache.ReadReq_miss_latency::switch_cpus.data  57292361000                       # number of ReadReq miss cycles
system.cpu.dcache.ReadReq_miss_latency::total  57292361000                       # number of ReadReq miss cycles
system.cpu.dcache.WriteReq_miss_latency::switch_cpus.data  47129098228                       # number of WriteReq miss cycles
system.cpu.dcache.WriteReq_miss_latency::total  47129098228                       # number of WriteReq miss cycles
system.cpu.dcache.LoadLockedReq_miss_latency::switch_cpus.data     21152250                       # number of LoadLockedReq miss cycles
system.cpu.dcache.LoadLockedReq_miss_latency::total     21152250                       # number of LoadLockedReq miss cycles
system.cpu.dcache.demand_miss_latency::switch_cpus.data 104421459228                       # number of demand (read+write) miss cycles
system.cpu.dcache.demand_miss_latency::total 104421459228                       # number of demand (read+write) miss cycles
system.cpu.dcache.overall_miss_latency::switch_cpus.data 104421459228                       # number of overall miss cycles
system.cpu.dcache.overall_miss_latency::total 104421459228                       # number of overall miss cycles
system.cpu.dcache.ReadReq_accesses::switch_cpus.data    209579241                       # number of ReadReq accesses(hits+misses)
system.cpu.dcache.ReadReq_accesses::total    209579241                       # number of ReadReq accesses(hits+misses)
system.cpu.dcache.WriteReq_accesses::switch_cpus.data     81043787                       # number of WriteReq accesses(hits+misses)
system.cpu.dcache.WriteReq_accesses::total     81043787                       # number of WriteReq accesses(hits+misses)
system.cpu.dcache.LoadLockedReq_accesses::switch_cpus.data         3127                       # number of LoadLockedReq accesses(hits+misses)
system.cpu.dcache.LoadLockedReq_accesses::total         3127                       # number of LoadLockedReq accesses(hits+misses)
system.cpu.dcache.StoreCondReq_accesses::switch_cpus.data         3127                       # number of StoreCondReq accesses(hits+misses)
system.cpu.dcache.StoreCondReq_accesses::total         3127                       # number of StoreCondReq accesses(hits+misses)
system.cpu.dcache.demand_accesses::switch_cpus.data    290623028                       # number of demand (read+write) accesses
system.cpu.dcache.demand_accesses::total    290623028                       # number of demand (read+write) accesses
system.cpu.dcache.overall_accesses::switch_cpus.data    290623028                       # number of overall (read+write) accesses
system.cpu.dcache.overall_accesses::total    290623028                       # number of overall (read+write) accesses
system.cpu.dcache.ReadReq_miss_rate::switch_cpus.data     0.006288                       # miss rate for ReadReq accesses
system.cpu.dcache.ReadReq_miss_rate::total     0.006288                       # miss rate for ReadReq accesses
system.cpu.dcache.WriteReq_miss_rate::switch_cpus.data     0.013002                       # miss rate for WriteReq accesses
system.cpu.dcache.WriteReq_miss_rate::total     0.013002                       # miss rate for WriteReq accesses
system.cpu.dcache.LoadLockedReq_miss_rate::switch_cpus.data     0.493124                       # miss rate for LoadLockedReq accesses
system.cpu.dcache.LoadLockedReq_miss_rate::total     0.493124                       # miss rate for LoadLockedReq accesses
system.cpu.dcache.demand_miss_rate::switch_cpus.data     0.008160                       # miss rate for demand accesses
system.cpu.dcache.demand_miss_rate::total     0.008160                       # miss rate for demand accesses
system.cpu.dcache.overall_miss_rate::switch_cpus.data     0.008160                       # miss rate for overall accesses
system.cpu.dcache.overall_miss_rate::total     0.008160                       # miss rate for overall accesses
system.cpu.dcache.ReadReq_avg_miss_latency::switch_cpus.data 43473.784013                       # average ReadReq miss latency
system.cpu.dcache.ReadReq_avg_miss_latency::total 43473.784013                       # average ReadReq miss latency
system.cpu.dcache.WriteReq_avg_miss_latency::switch_cpus.data 44724.655997                       # average WriteReq miss latency
system.cpu.dcache.WriteReq_avg_miss_latency::total 44724.655997                       # average WriteReq miss latency
system.cpu.dcache.LoadLockedReq_avg_miss_latency::switch_cpus.data 13717.412451                       # average LoadLockedReq miss latency
system.cpu.dcache.LoadLockedReq_avg_miss_latency::total 13717.412451                       # average LoadLockedReq miss latency
system.cpu.dcache.demand_avg_miss_latency::switch_cpus.data 44029.572696                       # average overall miss latency
system.cpu.dcache.demand_avg_miss_latency::total 44029.572696                       # average overall miss latency
system.cpu.dcache.overall_avg_miss_latency::switch_cpus.data 44029.572696                       # average overall miss latency
system.cpu.dcache.overall_avg_miss_latency::total 44029.572696                       # average overall miss latency
system.cpu.dcache.blocked_cycles::no_mshrs         6267                       # number of cycles access was blocked
system.cpu.dcache.blocked_cycles::no_targets            0                       # number of cycles access was blocked
system.cpu.dcache.blocked::no_mshrs               192                       # number of cycles access was blocked
system.cpu.dcache.blocked::no_targets               0                       # number of cycles access was blocked
system.cpu.dcache.avg_blocked_cycles::no_mshrs    32.640625                       # average number of cycles each access was blocked
system.cpu.dcache.avg_blocked_cycles::no_targets          nan                       # average number of cycles each access was blocked
system.cpu.dcache.fast_writes                       0                       # number of fast writes performed
system.cpu.dcache.cache_copies                      0                       # number of cache copies performed
system.cpu.dcache.writebacks::writebacks       330890                       # number of writebacks
system.cpu.dcache.writebacks::total            330890                       # number of writebacks
system.cpu.dcache.ReadReq_mshr_hits::switch_cpus.data       931193                       # number of ReadReq MSHR hits
system.cpu.dcache.ReadReq_mshr_hits::total       931193                       # number of ReadReq MSHR hits
system.cpu.dcache.WriteReq_mshr_hits::switch_cpus.data       754808                       # number of WriteReq MSHR hits
system.cpu.dcache.WriteReq_mshr_hits::total       754808                       # number of WriteReq MSHR hits
system.cpu.dcache.LoadLockedReq_mshr_hits::switch_cpus.data         1541                       # number of LoadLockedReq MSHR hits
system.cpu.dcache.LoadLockedReq_mshr_hits::total         1541                       # number of LoadLockedReq MSHR hits
system.cpu.dcache.demand_mshr_hits::switch_cpus.data      1686001                       # number of demand (read+write) MSHR hits
system.cpu.dcache.demand_mshr_hits::total      1686001                       # number of demand (read+write) MSHR hits
system.cpu.dcache.overall_mshr_hits::switch_cpus.data      1686001                       # number of overall MSHR hits
system.cpu.dcache.overall_mshr_hits::total      1686001                       # number of overall MSHR hits
system.cpu.dcache.ReadReq_mshr_misses::switch_cpus.data       386667                       # number of ReadReq MSHR misses
system.cpu.dcache.ReadReq_mshr_misses::total       386667                       # number of ReadReq MSHR misses
system.cpu.dcache.WriteReq_mshr_misses::switch_cpus.data       298953                       # number of WriteReq MSHR misses
system.cpu.dcache.WriteReq_mshr_misses::total       298953                       # number of WriteReq MSHR misses
system.cpu.dcache.LoadLockedReq_mshr_misses::switch_cpus.data            1                       # number of LoadLockedReq MSHR misses
system.cpu.dcache.LoadLockedReq_mshr_misses::total            1                       # number of LoadLockedReq MSHR misses
system.cpu.dcache.demand_mshr_misses::switch_cpus.data       685620                       # number of demand (read+write) MSHR misses
system.cpu.dcache.demand_mshr_misses::total       685620                       # number of demand (read+write) MSHR misses
system.cpu.dcache.overall_mshr_misses::switch_cpus.data       685620                       # number of overall MSHR misses
system.cpu.dcache.overall_mshr_misses::total       685620                       # number of overall MSHR misses
system.cpu.dcache.ReadReq_mshr_miss_latency::switch_cpus.data  16842687500                       # number of ReadReq MSHR miss cycles
system.cpu.dcache.ReadReq_mshr_miss_latency::total  16842687500                       # number of ReadReq MSHR miss cycles
system.cpu.dcache.WriteReq_mshr_miss_latency::switch_cpus.data  16182111999                       # number of WriteReq MSHR miss cycles
system.cpu.dcache.WriteReq_mshr_miss_latency::total  16182111999                       # number of WriteReq MSHR miss cycles
system.cpu.dcache.LoadLockedReq_mshr_miss_latency::switch_cpus.data        61250                       # number of LoadLockedReq MSHR miss cycles
system.cpu.dcache.LoadLockedReq_mshr_miss_latency::total        61250                       # number of LoadLockedReq MSHR miss cycles
system.cpu.dcache.demand_mshr_miss_latency::switch_cpus.data  33024799499                       # number of demand (read+write) MSHR miss cycles
system.cpu.dcache.demand_mshr_miss_latency::total  33024799499                       # number of demand (read+write) MSHR miss cycles
system.cpu.dcache.overall_mshr_miss_latency::switch_cpus.data  33024799499                       # number of overall MSHR miss cycles
system.cpu.dcache.overall_mshr_miss_latency::total  33024799499                       # number of overall MSHR miss cycles
system.cpu.dcache.ReadReq_mshr_miss_rate::switch_cpus.data     0.001845                       # mshr miss rate for ReadReq accesses
system.cpu.dcache.ReadReq_mshr_miss_rate::total     0.001845                       # mshr miss rate for ReadReq accesses
system.cpu.dcache.WriteReq_mshr_miss_rate::switch_cpus.data     0.003689                       # mshr miss rate for WriteReq accesses
system.cpu.dcache.WriteReq_mshr_miss_rate::total     0.003689                       # mshr miss rate for WriteReq accesses
system.cpu.dcache.LoadLockedReq_mshr_miss_rate::switch_cpus.data     0.000320                       # mshr miss rate for LoadLockedReq accesses
system.cpu.dcache.LoadLockedReq_mshr_miss_rate::total     0.000320                       # mshr miss rate for LoadLockedReq accesses
system.cpu.dcache.demand_mshr_miss_rate::switch_cpus.data     0.002359                       # mshr miss rate for demand accesses
system.cpu.dcache.demand_mshr_miss_rate::total     0.002359                       # mshr miss rate for demand accesses
system.cpu.dcache.overall_mshr_miss_rate::switch_cpus.data     0.002359                       # mshr miss rate for overall accesses
system.cpu.dcache.overall_mshr_miss_rate::total     0.002359                       # mshr miss rate for overall accesses
system.cpu.dcache.ReadReq_avg_mshr_miss_latency::switch_cpus.data 43558.637018                       # average ReadReq mshr miss latency
system.cpu.dcache.ReadReq_avg_mshr_miss_latency::total 43558.637018                       # average ReadReq mshr miss latency
system.cpu.dcache.WriteReq_avg_mshr_miss_latency::switch_cpus.data 54129.284533                       # average WriteReq mshr miss latency
system.cpu.dcache.WriteReq_avg_mshr_miss_latency::total 54129.284533                       # average WriteReq mshr miss latency
system.cpu.dcache.LoadLockedReq_avg_mshr_miss_latency::switch_cpus.data        61250                       # average LoadLockedReq mshr miss latency
system.cpu.dcache.LoadLockedReq_avg_mshr_miss_latency::total        61250                       # average LoadLockedReq mshr miss latency
system.cpu.dcache.demand_avg_mshr_miss_latency::switch_cpus.data 48167.789007                       # average overall mshr miss latency
system.cpu.dcache.demand_avg_mshr_miss_latency::total 48167.789007                       # average overall mshr miss latency
system.cpu.dcache.overall_avg_mshr_miss_latency::switch_cpus.data 48167.789007                       # average overall mshr miss latency
system.cpu.dcache.overall_avg_mshr_miss_latency::total 48167.789007                       # average overall mshr miss latency
system.cpu.dcache.no_allocate_misses                0                       # Number of misses that were no-allocate

---------- End Simulation Statistics   ----------
