Redirecting stdout to /home/majid/gem5/gem5-relax/tests/test-progs/susan/runs/lena-edges-480-1-relaxed-1/lena-edges-480-1-relaxed-1.out
Redirecting stderr to /home/majid/gem5/gem5-relax/tests/test-progs/susan/runs/lena-edges-480-1-relaxed-1/lena-edges-480-1-relaxed-1.err
gem5 Simulator System.  http://gem5.org
gem5 is copyrighted software; use the --copyright option for details.

gem5 compiled Apr 21 2014 11:01:47
gem5 started Apr 24 2014 17:42:56
gem5 executing on drg.ics.uci.edu
command line: /home/majid/gem5/gem5-relax/build/ALPHA/gem5.opt --redirect-stdout --redirect-stderr --stdout-file=/home/majid/gem5/gem5-relax/tests/test-progs/susan/runs/lena-edges-480-1-relaxed-1/lena-edges-480-1-relaxed-1.out --stderr-file=/home/majid/gem5/gem5-relax/tests/test-progs/susan/runs/lena-edges-480-1-relaxed-1/lena-edges-480-1-relaxed-1.err --outdir=/home/majid/gem5/gem5-relax/tests/test-progs/susan/runs/lena-edges-480-1-relaxed-1 --debug-flags=PseudoInst /home/majid/gem5/gem5-relax/configs/example/se_relax_cache.py --cpu-type=detailed --num-cpus=1 --sys-clock=2GHz --cpu-clock=2GHz --mem-type=ddr3_1600_x64 --mem-size=512MB --caches --l2cache --num-l2caches=1 --num-l3caches=0 --l1d_size=32kB --l1i_size=32kB --l2_size=512kB --l1d_assoc=4 --l1i_assoc=4 --l2_assoc=8 --cacheline_size=64 --fast-forward=3390 --maxinsts=100000000000000 --at-instruction --replacement_policy=random --l1_voltage_parameter_file=/home/majid/gem5/gem5-relax/ber_info/gem5params-L1-A.csv --l2_voltage_parameter_file=/home/majid/gem5/gem5-relax/ber_info/gem5params-L2-A.csv --vdd3_l1=480 --vdd2_l1=1000 --vdd1_l1=1000 --vdd3_l2=1000 --vdd2_l2=1000 --vdd1_l2=1000 --init_afb_l1=1 --init_afb_l2=0 --clean_ways_l1=1 --clean_ways_l2=8 -c /home/majid/gem5/gem5-relax/tests/test-progs/susan/bin/alpha/susan -o /home/majid/gem5/gem5-relax/tests/test-progs/susan/inputs/lena.pgm /home/majid/gem5/gem5-relax/tests/test-progs/susan/outputs/lena-edges-480-1-relaxed-1.pgm -e
Global frequency set at 1000000000000 ticks per second
info: Reading this cache's voltage parameter file...
info: Reading this cache's voltage parameter file...
info: Reading this cache's voltage parameter file...
info: Generating fault maps for this cache
info: Fault map generated
info: Dumping cache fault map for VDDs [480 mV, 1000 mV, 1000 mV]...
info: Block# = 0 ==>  0, 0, 0
info: Block# = 1 ==>  0, 0, 0
info: Block# = 2 ==>  1, 0, 0
info: Block# = 3 ==>  2, 0, 0
info: Block# = 4 ==>  0, 0, 0
info: Block# = 5 ==>  2, 0, 0
info: Block# = 6 ==>  1, 0, 0
info: Block# = 7 ==>  0, 0, 0
info: Block# = 8 ==>  0, 0, 0
info: Block# = 9 ==>  2, 0, 0
info: Block# = 10 ==>  3, 0, 0
info: Block# = 11 ==>  1, 0, 0
info: Block# = 12 ==>  0, 0, 0
info: Block# = 13 ==>  3, 0, 0
info: Block# = 14 ==>  1, 0, 0
info: Block# = 15 ==>  1, 0, 0
info: Block# = 16 ==>  0, 0, 0
info: Block# = 17 ==>  1, 0, 0
info: Block# = 18 ==>  2, 0, 0
info: Block# = 19 ==>  1, 0, 0
info: Block# = 20 ==>  0, 0, 0
info: Block# = 21 ==>  3, 0, 0
info: Block# = 22 ==>  0, 0, 0
info: Block# = 23 ==>  2, 0, 0
info: Block# = 24 ==>  0, 0, 0
info: Block# = 25 ==>  2, 0, 0
info: Block# = 26 ==>  1, 0, 0
info: Block# = 27 ==>  1, 0, 0
info: Block# = 28 ==>  0, 0, 0
info: Block# = 29 ==>  3, 0, 0
info: Block# = 30 ==>  4, 0, 0
info: Block# = 31 ==>  3, 0, 0
info: Block# = 32 ==>  0, 0, 0
info: Block# = 33 ==>  2, 0, 0
info: Block# = 34 ==>  3, 0, 0
info: Block# = 35 ==>  0, 0, 0
info: Block# = 36 ==>  0, 0, 0
info: Block# = 37 ==>  4, 0, 0
info: Block# = 38 ==>  0, 0, 0
info: Block# = 39 ==>  1, 0, 0
info: Block# = 40 ==>  0, 0, 0
info: Block# = 41 ==>  4, 0, 0
info: Block# = 42 ==>  6, 0, 0
info: Block# = 43 ==>  1, 0, 0
info: Block# = 44 ==>  0, 0, 0
info: Block# = 45 ==>  1, 0, 0
info: Block# = 46 ==>  3, 0, 0
info: Block# = 47 ==>  1, 0, 0
info: Block# = 48 ==>  0, 0, 0
info: Block# = 49 ==>  0, 0, 0
info: Block# = 50 ==>  0, 0, 0
info: Block# = 51 ==>  0, 0, 0
info: Block# = 52 ==>  0, 0, 0
info: Block# = 53 ==>  4, 0, 0
info: Block# = 54 ==>  3, 0, 0
info: Block# = 55 ==>  3, 0, 0
info: Block# = 56 ==>  0, 0, 0
info: Block# = 57 ==>  2, 0, 0
info: Block# = 58 ==>  5, 0, 0
info: Block# = 59 ==>  1, 0, 0
info: Block# = 60 ==>  0, 0, 0
info: Block# = 61 ==>  1, 0, 0
info: Block# = 62 ==>  1, 0, 0
info: Block# = 63 ==>  4, 0, 0
info: Block# = 64 ==>  0, 0, 0
info: Block# = 65 ==>  5, 0, 0
info: Block# = 66 ==>  2, 0, 0
info: Block# = 67 ==>  2, 0, 0
info: Block# = 68 ==>  0, 0, 0
info: Block# = 69 ==>  0, 0, 0
info: Block# = 70 ==>  0, 0, 0
info: Block# = 71 ==>  0, 0, 0
info: Block# = 72 ==>  0, 0, 0
info: Block# = 73 ==>  2, 0, 0
info: Block# = 74 ==>  3, 0, 0
info: Block# = 75 ==>  2, 0, 0
info: Block# = 76 ==>  0, 0, 0
info: Block# = 77 ==>  3, 0, 0
info: Block# = 78 ==>  5, 0, 0
info: Block# = 79 ==>  1, 0, 0
info: Block# = 80 ==>  0, 0, 0
info: Block# = 81 ==>  2, 0, 0
info: Block# = 82 ==>  3, 0, 0
info: Block# = 83 ==>  1, 0, 0
info: Block# = 84 ==>  0, 0, 0
info: Block# = 85 ==>  2, 0, 0
info: Block# = 86 ==>  2, 0, 0
info: Block# = 87 ==>  1, 0, 0
info: Block# = 88 ==>  0, 0, 0
info: Block# = 89 ==>  1, 0, 0
info: Block# = 90 ==>  3, 0, 0
info: Block# = 91 ==>  4, 0, 0
info: Block# = 92 ==>  0, 0, 0
info: Block# = 93 ==>  2, 0, 0
info: Block# = 94 ==>  1, 0, 0
info: Block# = 95 ==>  0, 0, 0
info: Block# = 96 ==>  0, 0, 0
info: Block# = 97 ==>  3, 0, 0
info: Block# = 98 ==>  1, 0, 0
info: Block# = 99 ==>  2, 0, 0
info: Block# = 100 ==>  0, 0, 0
info: Block# = 101 ==>  2, 0, 0
info: Block# = 102 ==>  1, 0, 0
info: Block# = 103 ==>  5, 0, 0
info: Block# = 104 ==>  0, 0, 0
info: Block# = 105 ==>  0, 0, 0
info: Block# = 106 ==>  1, 0, 0
info: Block# = 107 ==>  0, 0, 0
info: Block# = 108 ==>  0, 0, 0
info: Block# = 109 ==>  0, 0, 0
info: Block# = 110 ==>  1, 0, 0
info: Block# = 111 ==>  0, 0, 0
info: Block# = 112 ==>  0, 0, 0
info: Block# = 113 ==>  2, 0, 0
info: Block# = 114 ==>  3, 0, 0
info: Block# = 115 ==>  3, 0, 0
info: Block# = 116 ==>  0, 0, 0
info: Block# = 117 ==>  1, 0, 0
info: Block# = 118 ==>  1, 0, 0
info: Block# = 119 ==>  2, 0, 0
info: Block# = 120 ==>  0, 0, 0
info: Block# = 121 ==>  1, 0, 0
info: Block# = 122 ==>  0, 0, 0
info: Block# = 123 ==>  1, 0, 0
info: Block# = 124 ==>  0, 0, 0
info: Block# = 125 ==>  0, 0, 0
info: Block# = 126 ==>  2, 0, 0
info: Block# = 127 ==>  2, 0, 0
info: Block# = 128 ==>  0, 0, 0
info: Block# = 129 ==>  1, 0, 0
info: Block# = 130 ==>  3, 0, 0
info: Block# = 131 ==>  0, 0, 0
info: Block# = 132 ==>  0, 0, 0
info: Block# = 133 ==>  1, 0, 0
info: Block# = 134 ==>  4, 0, 0
info: Block# = 135 ==>  3, 0, 0
info: Block# = 136 ==>  0, 0, 0
info: Block# = 137 ==>  4, 0, 0
info: Block# = 138 ==>  6, 0, 0
info: Block# = 139 ==>  2, 0, 0
info: Block# = 140 ==>  0, 0, 0
info: Block# = 141 ==>  2, 0, 0
info: Block# = 142 ==>  2, 0, 0
info: Block# = 143 ==>  0, 0, 0
info: Block# = 144 ==>  0, 0, 0
info: Block# = 145 ==>  1, 0, 0
info: Block# = 146 ==>  1, 0, 0
info: Block# = 147 ==>  2, 0, 0
info: Block# = 148 ==>  0, 0, 0
info: Block# = 149 ==>  2, 0, 0
info: Block# = 150 ==>  2, 0, 0
info: Block# = 151 ==>  1, 0, 0
info: Block# = 152 ==>  0, 0, 0
info: Block# = 153 ==>  0, 0, 0
info: Block# = 154 ==>  3, 0, 0
info: Block# = 155 ==>  0, 0, 0
info: Block# = 156 ==>  0, 0, 0
info: Block# = 157 ==>  3, 0, 0
info: Block# = 158 ==>  3, 0, 0
info: Block# = 159 ==>  3, 0, 0
info: Block# = 160 ==>  0, 0, 0
info: Block# = 161 ==>  1, 0, 0
info: Block# = 162 ==>  3, 0, 0
info: Block# = 163 ==>  0, 0, 0
info: Block# = 164 ==>  0, 0, 0
info: Block# = 165 ==>  2, 0, 0
info: Block# = 166 ==>  0, 0, 0
info: Block# = 167 ==>  4, 0, 0
info: Block# = 168 ==>  0, 0, 0
info: Block# = 169 ==>  0, 0, 0
info: Block# = 170 ==>  1, 0, 0
info: Block# = 171 ==>  2, 0, 0
info: Block# = 172 ==>  0, 0, 0
info: Block# = 173 ==>  1, 0, 0
info: Block# = 174 ==>  1, 0, 0
info: Block# = 175 ==>  0, 0, 0
info: Block# = 176 ==>  0, 0, 0
info: Block# = 177 ==>  1, 0, 0
info: Block# = 178 ==>  1, 0, 0
info: Block# = 179 ==>  5, 0, 0
info: Block# = 180 ==>  0, 0, 0
info: Block# = 181 ==>  4, 0, 0
info: Block# = 182 ==>  1, 0, 0
info: Block# = 183 ==>  0, 0, 0
info: Block# = 184 ==>  0, 0, 0
info: Block# = 185 ==>  1, 0, 0
info: Block# = 186 ==>  2, 0, 0
info: Block# = 187 ==>  1, 0, 0
info: Block# = 188 ==>  0, 0, 0
info: Block# = 189 ==>  1, 0, 0
info: Block# = 190 ==>  3, 0, 0
info: Block# = 191 ==>  1, 0, 0
info: Block# = 192 ==>  0, 0, 0
info: Block# = 193 ==>  1, 0, 0
info: Block# = 194 ==>  3, 0, 0
info: Block# = 195 ==>  2, 0, 0
info: Block# = 196 ==>  0, 0, 0
info: Block# = 197 ==>  2, 0, 0
info: Block# = 198 ==>  2, 0, 0
info: Block# = 199 ==>  0, 0, 0
info: Block# = 200 ==>  0, 0, 0
info: Block# = 201 ==>  0, 0, 0
info: Block# = 202 ==>  0, 0, 0
info: Block# = 203 ==>  1, 0, 0
info: Block# = 204 ==>  0, 0, 0
info: Block# = 205 ==>  1, 0, 0
info: Block# = 206 ==>  0, 0, 0
info: Block# = 207 ==>  2, 0, 0
info: Block# = 208 ==>  0, 0, 0
info: Block# = 209 ==>  1, 0, 0
info: Block# = 210 ==>  0, 0, 0
info: Block# = 211 ==>  5, 0, 0
info: Block# = 212 ==>  0, 0, 0
info: Block# = 213 ==>  4, 0, 0
info: Block# = 214 ==>  2, 0, 0
info: Block# = 215 ==>  0, 0, 0
info: Block# = 216 ==>  0, 0, 0
info: Block# = 217 ==>  2, 0, 0
info: Block# = 218 ==>  7, 0, 0
info: Block# = 219 ==>  0, 0, 0
info: Block# = 220 ==>  0, 0, 0
info: Block# = 221 ==>  2, 0, 0
info: Block# = 222 ==>  2, 0, 0
info: Block# = 223 ==>  3, 0, 0
info: Block# = 224 ==>  0, 0, 0
info: Block# = 225 ==>  1, 0, 0
info: Block# = 226 ==>  3, 0, 0
info: Block# = 227 ==>  1, 0, 0
info: Block# = 228 ==>  0, 0, 0
info: Block# = 229 ==>  3, 0, 0
info: Block# = 230 ==>  1, 0, 0
info: Block# = 231 ==>  2, 0, 0
info: Block# = 232 ==>  0, 0, 0
info: Block# = 233 ==>  2, 0, 0
info: Block# = 234 ==>  2, 0, 0
info: Block# = 235 ==>  0, 0, 0
info: Block# = 236 ==>  0, 0, 0
info: Block# = 237 ==>  0, 0, 0
info: Block# = 238 ==>  3, 0, 0
info: Block# = 239 ==>  1, 0, 0
info: Block# = 240 ==>  0, 0, 0
info: Block# = 241 ==>  1, 0, 0
info: Block# = 242 ==>  2, 0, 0
info: Block# = 243 ==>  1, 0, 0
info: Block# = 244 ==>  0, 0, 0
info: Block# = 245 ==>  1, 0, 0
info: Block# = 246 ==>  0, 0, 0
info: Block# = 247 ==>  0, 0, 0
info: Block# = 248 ==>  0, 0, 0
info: Block# = 249 ==>  2, 0, 0
info: Block# = 250 ==>  0, 0, 0
info: Block# = 251 ==>  1, 0, 0
info: Block# = 252 ==>  0, 0, 0
info: Block# = 253 ==>  5, 0, 0
info: Block# = 254 ==>  2, 0, 0
info: Block# = 255 ==>  2, 0, 0
info: Block# = 256 ==>  0, 0, 0
info: Block# = 257 ==>  2, 0, 0
info: Block# = 258 ==>  0, 0, 0
info: Block# = 259 ==>  1, 0, 0
info: Block# = 260 ==>  0, 0, 0
info: Block# = 261 ==>  1, 0, 0
info: Block# = 262 ==>  1, 0, 0
info: Block# = 263 ==>  0, 0, 0
info: Block# = 264 ==>  0, 0, 0
info: Block# = 265 ==>  0, 0, 0
info: Block# = 266 ==>  4, 0, 0
info: Block# = 267 ==>  3, 0, 0
info: Block# = 268 ==>  0, 0, 0
info: Block# = 269 ==>  2, 0, 0
info: Block# = 270 ==>  1, 0, 0
info: Block# = 271 ==>  1, 0, 0
info: Block# = 272 ==>  0, 0, 0
info: Block# = 273 ==>  1, 0, 0
info: Block# = 274 ==>  2, 0, 0
info: Block# = 275 ==>  2, 0, 0
info: Block# = 276 ==>  0, 0, 0
info: Block# = 277 ==>  0, 0, 0
info: Block# = 278 ==>  1, 0, 0
info: Block# = 279 ==>  1, 0, 0
info: Block# = 280 ==>  0, 0, 0
info: Block# = 281 ==>  1, 0, 0
info: Block# = 282 ==>  1, 0, 0
info: Block# = 283 ==>  1, 0, 0
info: Block# = 284 ==>  0, 0, 0
info: Block# = 285 ==>  4, 0, 0
info: Block# = 286 ==>  1, 0, 0
info: Block# = 287 ==>  1, 0, 0
info: Block# = 288 ==>  0, 0, 0
info: Block# = 289 ==>  1, 0, 0
info: Block# = 290 ==>  1, 0, 0
info: Block# = 291 ==>  1, 0, 0
info: Block# = 292 ==>  0, 0, 0
info: Block# = 293 ==>  2, 0, 0
info: Block# = 294 ==>  3, 0, 0
info: Block# = 295 ==>  1, 0, 0
info: Block# = 296 ==>  0, 0, 0
info: Block# = 297 ==>  4, 0, 0
info: Block# = 298 ==>  1, 0, 0
info: Block# = 299 ==>  2, 0, 0
info: Block# = 300 ==>  0, 0, 0
info: Block# = 301 ==>  0, 0, 0
info: Block# = 302 ==>  4, 0, 0
info: Block# = 303 ==>  0, 0, 0
info: Block# = 304 ==>  0, 0, 0
info: Block# = 305 ==>  2, 0, 0
info: Block# = 306 ==>  0, 0, 0
info: Block# = 307 ==>  1, 0, 0
info: Block# = 308 ==>  0, 0, 0
info: Block# = 309 ==>  2, 0, 0
info: Block# = 310 ==>  1, 0, 0
info: Block# = 311 ==>  0, 0, 0
info: Block# = 312 ==>  0, 0, 0
info: Block# = 313 ==>  0, 0, 0
info: Block# = 314 ==>  2, 0, 0
info: Block# = 315 ==>  1, 0, 0
info: Block# = 316 ==>  0, 0, 0
info: Block# = 317 ==>  1, 0, 0
info: Block# = 318 ==>  1, 0, 0
info: Block# = 319 ==>  1, 0, 0
info: Block# = 320 ==>  0, 0, 0
info: Block# = 321 ==>  2, 0, 0
info: Block# = 322 ==>  3, 0, 0
info: Block# = 323 ==>  0, 0, 0
info: Block# = 324 ==>  0, 0, 0
info: Block# = 325 ==>  1, 0, 0
info: Block# = 326 ==>  3, 0, 0
info: Block# = 327 ==>  1, 0, 0
info: Block# = 328 ==>  0, 0, 0
info: Block# = 329 ==>  3, 0, 0
info: Block# = 330 ==>  2, 0, 0
info: Block# = 331 ==>  1, 0, 0
info: Block# = 332 ==>  0, 0, 0
info: Block# = 333 ==>  2, 0, 0
info: Block# = 334 ==>  2, 0, 0
info: Block# = 335 ==>  1, 0, 0
info: Block# = 336 ==>  0, 0, 0
info: Block# = 337 ==>  4, 0, 0
info: Block# = 338 ==>  1, 0, 0
info: Block# = 339 ==>  1, 0, 0
info: Block# = 340 ==>  0, 0, 0
info: Block# = 341 ==>  4, 0, 0
info: Block# = 342 ==>  3, 0, 0
info: Block# = 343 ==>  2, 0, 0
info: Block# = 344 ==>  0, 0, 0
info: Block# = 345 ==>  1, 0, 0
info: Block# = 346 ==>  2, 0, 0
info: Block# = 347 ==>  2, 0, 0
info: Block# = 348 ==>  0, 0, 0
info: Block# = 349 ==>  1, 0, 0
info: Block# = 350 ==>  2, 0, 0
info: Block# = 351 ==>  3, 0, 0
info: Block# = 352 ==>  0, 0, 0
info: Block# = 353 ==>  1, 0, 0
info: Block# = 354 ==>  3, 0, 0
info: Block# = 355 ==>  1, 0, 0
info: Block# = 356 ==>  0, 0, 0
info: Block# = 357 ==>  1, 0, 0
info: Block# = 358 ==>  2, 0, 0
info: Block# = 359 ==>  3, 0, 0
info: Block# = 360 ==>  0, 0, 0
info: Block# = 361 ==>  2, 0, 0
info: Block# = 362 ==>  1, 0, 0
info: Block# = 363 ==>  3, 0, 0
info: Block# = 364 ==>  0, 0, 0
info: Block# = 365 ==>  6, 0, 0
info: Block# = 366 ==>  0, 0, 0
info: Block# = 367 ==>  1, 0, 0
info: Block# = 368 ==>  0, 0, 0
info: Block# = 369 ==>  1, 0, 0
info: Block# = 370 ==>  0, 0, 0
info: Block# = 371 ==>  2, 0, 0
info: Block# = 372 ==>  0, 0, 0
info: Block# = 373 ==>  1, 0, 0
info: Block# = 374 ==>  2, 0, 0
info: Block# = 375 ==>  1, 0, 0
info: Block# = 376 ==>  0, 0, 0
info: Block# = 377 ==>  0, 0, 0
info: Block# = 378 ==>  0, 0, 0
info: Block# = 379 ==>  0, 0, 0
info: Block# = 380 ==>  0, 0, 0
info: Block# = 381 ==>  2, 0, 0
info: Block# = 382 ==>  1, 0, 0
info: Block# = 383 ==>  4, 0, 0
info: Block# = 384 ==>  0, 0, 0
info: Block# = 385 ==>  1, 0, 0
info: Block# = 386 ==>  2, 0, 0
info: Block# = 387 ==>  3, 0, 0
info: Block# = 388 ==>  0, 0, 0
info: Block# = 389 ==>  1, 0, 0
info: Block# = 390 ==>  2, 0, 0
info: Block# = 391 ==>  1, 0, 0
info: Block# = 392 ==>  0, 0, 0
info: Block# = 393 ==>  1, 0, 0
info: Block# = 394 ==>  1, 0, 0
info: Block# = 395 ==>  1, 0, 0
info: Block# = 396 ==>  0, 0, 0
info: Block# = 397 ==>  2, 0, 0
info: Block# = 398 ==>  2, 0, 0
info: Block# = 399 ==>  0, 0, 0
info: Block# = 400 ==>  0, 0, 0
info: Block# = 401 ==>  0, 0, 0
info: Block# = 402 ==>  1, 0, 0
info: Block# = 403 ==>  4, 0, 0
info: Block# = 404 ==>  0, 0, 0
info: Block# = 405 ==>  2, 0, 0
info: Block# = 406 ==>  3, 0, 0
info: Block# = 407 ==>  4, 0, 0
info: Block# = 408 ==>  0, 0, 0
info: Block# = 409 ==>  2, 0, 0
info: Block# = 410 ==>  0, 0, 0
info: Block# = 411 ==>  1, 0, 0
info: Block# = 412 ==>  0, 0, 0
info: Block# = 413 ==>  0, 0, 0
info: Block# = 414 ==>  1, 0, 0
info: Block# = 415 ==>  1, 0, 0
info: Block# = 416 ==>  0, 0, 0
info: Block# = 417 ==>  1, 0, 0
info: Block# = 418 ==>  2, 0, 0
info: Block# = 419 ==>  2, 0, 0
info: Block# = 420 ==>  0, 0, 0
info: Block# = 421 ==>  4, 0, 0
info: Block# = 422 ==>  6, 0, 0
info: Block# = 423 ==>  2, 0, 0
info: Block# = 424 ==>  0, 0, 0
info: Block# = 425 ==>  2, 0, 0
info: Block# = 426 ==>  2, 0, 0
info: Block# = 427 ==>  1, 0, 0
info: Block# = 428 ==>  0, 0, 0
info: Block# = 429 ==>  3, 0, 0
info: Block# = 430 ==>  1, 0, 0
info: Block# = 431 ==>  2, 0, 0
info: Block# = 432 ==>  0, 0, 0
info: Block# = 433 ==>  3, 0, 0
info: Block# = 434 ==>  1, 0, 0
info: Block# = 435 ==>  1, 0, 0
info: Block# = 436 ==>  0, 0, 0
info: Block# = 437 ==>  2, 0, 0
info: Block# = 438 ==>  0, 0, 0
info: Block# = 439 ==>  1, 0, 0
info: Block# = 440 ==>  0, 0, 0
info: Block# = 441 ==>  0, 0, 0
info: Block# = 442 ==>  3, 0, 0
info: Block# = 443 ==>  2, 0, 0
info: Block# = 444 ==>  0, 0, 0
info: Block# = 445 ==>  2, 0, 0
info: Block# = 446 ==>  3, 0, 0
info: Block# = 447 ==>  2, 0, 0
info: Block# = 448 ==>  0, 0, 0
info: Block# = 449 ==>  0, 0, 0
info: Block# = 450 ==>  0, 0, 0
info: Block# = 451 ==>  1, 0, 0
info: Block# = 452 ==>  0, 0, 0
info: Block# = 453 ==>  0, 0, 0
info: Block# = 454 ==>  3, 0, 0
info: Block# = 455 ==>  2, 0, 0
info: Block# = 456 ==>  0, 0, 0
info: Block# = 457 ==>  2, 0, 0
info: Block# = 458 ==>  0, 0, 0
info: Block# = 459 ==>  0, 0, 0
info: Block# = 460 ==>  0, 0, 0
info: Block# = 461 ==>  2, 0, 0
info: Block# = 462 ==>  6, 0, 0
info: Block# = 463 ==>  0, 0, 0
info: Block# = 464 ==>  0, 0, 0
info: Block# = 465 ==>  3, 0, 0
info: Block# = 466 ==>  3, 0, 0
info: Block# = 467 ==>  1, 0, 0
info: Block# = 468 ==>  0, 0, 0
info: Block# = 469 ==>  1, 0, 0
info: Block# = 470 ==>  2, 0, 0
info: Block# = 471 ==>  0, 0, 0
info: Block# = 472 ==>  0, 0, 0
info: Block# = 473 ==>  1, 0, 0
info: Block# = 474 ==>  1, 0, 0
info: Block# = 475 ==>  0, 0, 0
info: Block# = 476 ==>  0, 0, 0
info: Block# = 477 ==>  3, 0, 0
info: Block# = 478 ==>  3, 0, 0
info: Block# = 479 ==>  1, 0, 0
info: Block# = 480 ==>  0, 0, 0
info: Block# = 481 ==>  1, 0, 0
info: Block# = 482 ==>  4, 0, 0
info: Block# = 483 ==>  3, 0, 0
info: Block# = 484 ==>  0, 0, 0
info: Block# = 485 ==>  0, 0, 0
info: Block# = 486 ==>  2, 0, 0
info: Block# = 487 ==>  1, 0, 0
info: Block# = 488 ==>  0, 0, 0
info: Block# = 489 ==>  4, 0, 0
info: Block# = 490 ==>  1, 0, 0
info: Block# = 491 ==>  2, 0, 0
info: Block# = 492 ==>  0, 0, 0
info: Block# = 493 ==>  1, 0, 0
info: Block# = 494 ==>  1, 0, 0
info: Block# = 495 ==>  1, 0, 0
info: Block# = 496 ==>  0, 0, 0
info: Block# = 497 ==>  2, 0, 0
info: Block# = 498 ==>  2, 0, 0
info: Block# = 499 ==>  2, 0, 0
info: Block# = 500 ==>  0, 0, 0
info: Block# = 501 ==>  3, 0, 0
info: Block# = 502 ==>  0, 0, 0
info: Block# = 503 ==>  2, 0, 0
info: Block# = 504 ==>  0, 0, 0
info: Block# = 505 ==>  1, 0, 0
info: Block# = 506 ==>  2, 0, 0
info: Block# = 507 ==>  1, 0, 0
info: Block# = 508 ==>  0, 0, 0
info: Block# = 509 ==>  3, 0, 0
info: Block# = 510 ==>  2, 0, 0
info: Block# = 511 ==>  1, 0, 0
info: Block [0][3] disabled and invalidated 
info: Block [1][1] disabled and invalidated 
info: Block [2][1] disabled and invalidated 
info: Block [2][2] disabled and invalidated 
info: Block [3][1] disabled and invalidated 
info: Block [4][2] disabled and invalidated 
info: Block [5][1] disabled and invalidated 
info: Block [5][3] disabled and invalidated 
info: Block [6][1] disabled and invalidated 
info: Block [7][1] disabled and invalidated 
info: Block [7][2] disabled and invalidated 
info: Block [7][3] disabled and invalidated 
info: Block [8][1] disabled and invalidated 
info: Block [8][2] disabled and invalidated 
info: Block [9][1] disabled and invalidated 
info: Block [10][1] disabled and invalidated 
info: Block [10][2] disabled and invalidated 
info: Block [11][2] disabled and invalidated 
info: Block [13][1] disabled and invalidated 
info: Block [13][2] disabled and invalidated 
info: Block [13][3] disabled and invalidated 
info: Block [14][1] disabled and invalidated 
info: Block [14][2] disabled and invalidated 
info: Block [15][3] disabled and invalidated 
info: Block [16][1] disabled and invalidated 
info: Block [16][2] disabled and invalidated 
info: Block [16][3] disabled and invalidated 
info: Block [18][1] disabled and invalidated 
info: Block [18][2] disabled and invalidated 
info: Block [18][3] disabled and invalidated 
info: Block [19][1] disabled and invalidated 
info: Block [19][2] disabled and invalidated 
info: Block [20][1] disabled and invalidated 
info: Block [20][2] disabled and invalidated 
info: Block [21][1] disabled and invalidated 
info: Block [21][2] disabled and invalidated 
info: Block [22][2] disabled and invalidated 
info: Block [22][3] disabled and invalidated 
info: Block [23][1] disabled and invalidated 
info: Block [24][1] disabled and invalidated 
info: Block [24][3] disabled and invalidated 
info: Block [25][1] disabled and invalidated 
info: Block [25][3] disabled and invalidated 
info: Block [28][1] disabled and invalidated 
info: Block [28][2] disabled and invalidated 
info: Block [28][3] disabled and invalidated 
info: Block [29][3] disabled and invalidated 
info: Block [31][2] disabled and invalidated 
info: Block [31][3] disabled and invalidated 
info: Block [32][2] disabled and invalidated 
info: Block [33][2] disabled and invalidated 
info: Block [33][3] disabled and invalidated 
info: Block [34][1] disabled and invalidated 
info: Block [34][2] disabled and invalidated 
info: Block [34][3] disabled and invalidated 
info: Block [35][1] disabled and invalidated 
info: Block [35][2] disabled and invalidated 
info: Block [36][3] disabled and invalidated 
info: Block [37][1] disabled and invalidated 
info: Block [37][2] disabled and invalidated 
info: Block [38][2] disabled and invalidated 
info: Block [39][1] disabled and invalidated 
info: Block [39][2] disabled and invalidated 
info: Block [39][3] disabled and invalidated 
info: Block [40][2] disabled and invalidated 
info: Block [41][1] disabled and invalidated 
info: Block [41][3] disabled and invalidated 
info: Block [42][3] disabled and invalidated 
info: Block [44][3] disabled and invalidated 
info: Block [45][1] disabled and invalidated 
info: Block [46][2] disabled and invalidated 
info: Block [47][2] disabled and invalidated 
info: Block [48][2] disabled and invalidated 
info: Block [48][3] disabled and invalidated 
info: Block [49][1] disabled and invalidated 
info: Block [49][2] disabled and invalidated 
info: Block [51][3] disabled and invalidated 
info: Block [52][3] disabled and invalidated 
info: Block [53][1] disabled and invalidated 
info: Block [53][2] disabled and invalidated 
info: Block [54][1] disabled and invalidated 
info: Block [54][2] disabled and invalidated 
info: Block [55][1] disabled and invalidated 
info: Block [55][2] disabled and invalidated 
info: Block [55][3] disabled and invalidated 
info: Block [56][2] disabled and invalidated 
info: Block [57][1] disabled and invalidated 
info: Block [57][3] disabled and invalidated 
info: Block [58][1] disabled and invalidated 
info: Block [58][2] disabled and invalidated 
info: Block [59][2] disabled and invalidated 
info: Block [60][2] disabled and invalidated 
info: Block [62][1] disabled and invalidated 
info: Block [63][1] disabled and invalidated 
info: Block [63][2] disabled and invalidated 
info: Block [63][3] disabled and invalidated 
info: Block [64][1] disabled and invalidated 
info: Block [66][2] disabled and invalidated 
info: Block [66][3] disabled and invalidated 
info: Block [67][1] disabled and invalidated 
info: Block [68][2] disabled and invalidated 
info: Block [68][3] disabled and invalidated 
info: Block [71][1] disabled and invalidated 
info: Block [73][1] disabled and invalidated 
info: Block [73][2] disabled and invalidated 
info: Block [74][1] disabled and invalidated 
info: Block [74][3] disabled and invalidated 
info: Block [75][2] disabled and invalidated 
info: Block [76][1] disabled and invalidated 
info: Block [77][1] disabled and invalidated 
info: Block [78][2] disabled and invalidated 
info: Block [80][1] disabled and invalidated 
info: Block [80][2] disabled and invalidated 
info: Block [81][2] disabled and invalidated 
info: Block [82][1] disabled and invalidated 
info: Block [82][2] disabled and invalidated 
info: Block [83][1] disabled and invalidated 
info: Block [83][2] disabled and invalidated 
info: Block [84][1] disabled and invalidated 
info: Block [85][1] disabled and invalidated 
info: Block [85][2] disabled and invalidated 
info: Block [85][3] disabled and invalidated 
info: Block [86][2] disabled and invalidated 
info: Block [86][3] disabled and invalidated 
info: Block [87][2] disabled and invalidated 
info: Block [87][3] disabled and invalidated 
info: Block [88][2] disabled and invalidated 
info: Block [89][2] disabled and invalidated 
info: Block [89][3] disabled and invalidated 
info: Block [90][1] disabled and invalidated 
info: Block [90][3] disabled and invalidated 
info: Block [91][1] disabled and invalidated 
info: Block [92][3] disabled and invalidated 
info: Block [93][2] disabled and invalidated 
info: Block [95][1] disabled and invalidated 
info: Block [95][3] disabled and invalidated 
info: Block [96][2] disabled and invalidated 
info: Block [96][3] disabled and invalidated 
info: Block [97][2] disabled and invalidated 
info: Block [99][1] disabled and invalidated 
info: Block [99][2] disabled and invalidated 
info: Block [100][3] disabled and invalidated 
info: Block [101][1] disabled and invalidated 
info: Block [101][2] disabled and invalidated 
info: Block [101][3] disabled and invalidated 
info: Block [102][1] disabled and invalidated 
info: Block [104][2] disabled and invalidated 
info: Block [104][3] disabled and invalidated 
info: Block [105][1] disabled and invalidated 
info: Block [105][2] disabled and invalidated 
info: Block [105][3] disabled and invalidated 
info: Block [106][1] disabled and invalidated 
info: Block [106][2] disabled and invalidated 
info: Block [107][1] disabled and invalidated 
info: Block [107][3] disabled and invalidated 
info: Block [108][1] disabled and invalidated 
info: Block [109][1] disabled and invalidated 
info: Block [110][2] disabled and invalidated 
info: Block [110][3] disabled and invalidated 
info: Block [111][1] disabled and invalidated 
info: Block [111][2] disabled and invalidated 
info: Block [111][3] disabled and invalidated 
info: Block [113][2] disabled and invalidated 
info: Block [113][3] disabled and invalidated 
info: Block [114][1] disabled and invalidated 
info: Block [115][1] disabled and invalidated 
info: Block [115][2] disabled and invalidated 
info: Block [116][1] disabled and invalidated 
info: Block [116][2] disabled and invalidated 
info: Block [117][2] disabled and invalidated 
info: Block [119][1] disabled and invalidated 
info: Block [119][2] disabled and invalidated 
info: Block [120][2] disabled and invalidated 
info: Block [120][3] disabled and invalidated 
info: Block [121][2] disabled and invalidated 
info: Block [122][1] disabled and invalidated 
info: Block [122][3] disabled and invalidated 
info: Block [124][1] disabled and invalidated 
info: Block [124][2] disabled and invalidated 
info: Block [124][3] disabled and invalidated 
info: Block [125][1] disabled and invalidated 
info: Block [125][3] disabled and invalidated 
info: Block [126][2] disabled and invalidated 
info: Block [127][1] disabled and invalidated 
info: Block [127][2] disabled and invalidated 
info: Dumping cache status for current VDD = 480 mV and AFB = 1...
info: Status Bits: Disabled, Faulty, HWPrefetched, Referenced | Dirty, Readable, Writable, Valid
info: Block# = 0 ==>  0
info: Block# = 1 ==>  0
info: Block# = 2 ==> 40
info: Block# = 3 ==> c0
info: Block# = 4 ==>  0
info: Block# = 5 ==> c0
info: Block# = 6 ==> 40
info: Block# = 7 ==>  0
info: Block# = 8 ==>  0
info: Block# = 9 ==> c0
info: Block# = 10 ==> c0
info: Block# = 11 ==> 40
info: Block# = 12 ==>  0
info: Block# = 13 ==> c0
info: Block# = 14 ==> 40
info: Block# = 15 ==> 40
info: Block# = 16 ==>  0
info: Block# = 17 ==> 40
info: Block# = 18 ==> c0
info: Block# = 19 ==> 40
info: Block# = 20 ==>  0
info: Block# = 21 ==> c0
info: Block# = 22 ==>  0
info: Block# = 23 ==> c0
info: Block# = 24 ==>  0
info: Block# = 25 ==> c0
info: Block# = 26 ==> 40
info: Block# = 27 ==> 40
info: Block# = 28 ==>  0
info: Block# = 29 ==> c0
info: Block# = 30 ==> c0
info: Block# = 31 ==> c0
info: Block# = 32 ==>  0
info: Block# = 33 ==> c0
info: Block# = 34 ==> c0
info: Block# = 35 ==>  0
info: Block# = 36 ==>  0
info: Block# = 37 ==> c0
info: Block# = 38 ==>  0
info: Block# = 39 ==> 40
info: Block# = 40 ==>  0
info: Block# = 41 ==> c0
info: Block# = 42 ==> c0
info: Block# = 43 ==> 40
info: Block# = 44 ==>  0
info: Block# = 45 ==> 40
info: Block# = 46 ==> c0
info: Block# = 47 ==> 40
info: Block# = 48 ==>  0
info: Block# = 49 ==>  0
info: Block# = 50 ==>  0
info: Block# = 51 ==>  0
info: Block# = 52 ==>  0
info: Block# = 53 ==> c0
info: Block# = 54 ==> c0
info: Block# = 55 ==> c0
info: Block# = 56 ==>  0
info: Block# = 57 ==> c0
info: Block# = 58 ==> c0
info: Block# = 59 ==> 40
info: Block# = 60 ==>  0
info: Block# = 61 ==> 40
info: Block# = 62 ==> 40
info: Block# = 63 ==> c0
info: Block# = 64 ==>  0
info: Block# = 65 ==> c0
info: Block# = 66 ==> c0
info: Block# = 67 ==> c0
info: Block# = 68 ==>  0
info: Block# = 69 ==>  0
info: Block# = 70 ==>  0
info: Block# = 71 ==>  0
info: Block# = 72 ==>  0
info: Block# = 73 ==> c0
info: Block# = 74 ==> c0
info: Block# = 75 ==> c0
info: Block# = 76 ==>  0
info: Block# = 77 ==> c0
info: Block# = 78 ==> c0
info: Block# = 79 ==> 40
info: Block# = 80 ==>  0
info: Block# = 81 ==> c0
info: Block# = 82 ==> c0
info: Block# = 83 ==> 40
info: Block# = 84 ==>  0
info: Block# = 85 ==> c0
info: Block# = 86 ==> c0
info: Block# = 87 ==> 40
info: Block# = 88 ==>  0
info: Block# = 89 ==> 40
info: Block# = 90 ==> c0
info: Block# = 91 ==> c0
info: Block# = 92 ==>  0
info: Block# = 93 ==> c0
info: Block# = 94 ==> 40
info: Block# = 95 ==>  0
info: Block# = 96 ==>  0
info: Block# = 97 ==> c0
info: Block# = 98 ==> 40
info: Block# = 99 ==> c0
info: Block# = 100 ==>  0
info: Block# = 101 ==> c0
info: Block# = 102 ==> 40
info: Block# = 103 ==> c0
info: Block# = 104 ==>  0
info: Block# = 105 ==>  0
info: Block# = 106 ==> 40
info: Block# = 107 ==>  0
info: Block# = 108 ==>  0
info: Block# = 109 ==>  0
info: Block# = 110 ==> 40
info: Block# = 111 ==>  0
info: Block# = 112 ==>  0
info: Block# = 113 ==> c0
info: Block# = 114 ==> c0
info: Block# = 115 ==> c0
info: Block# = 116 ==>  0
info: Block# = 117 ==> 40
info: Block# = 118 ==> 40
info: Block# = 119 ==> c0
info: Block# = 120 ==>  0
info: Block# = 121 ==> 40
info: Block# = 122 ==>  0
info: Block# = 123 ==> 40
info: Block# = 124 ==>  0
info: Block# = 125 ==>  0
info: Block# = 126 ==> c0
info: Block# = 127 ==> c0
info: Block# = 128 ==>  0
info: Block# = 129 ==> 40
info: Block# = 130 ==> c0
info: Block# = 131 ==>  0
info: Block# = 132 ==>  0
info: Block# = 133 ==> 40
info: Block# = 134 ==> c0
info: Block# = 135 ==> c0
info: Block# = 136 ==>  0
info: Block# = 137 ==> c0
info: Block# = 138 ==> c0
info: Block# = 139 ==> c0
info: Block# = 140 ==>  0
info: Block# = 141 ==> c0
info: Block# = 142 ==> c0
info: Block# = 143 ==>  0
info: Block# = 144 ==>  0
info: Block# = 145 ==> 40
info: Block# = 146 ==> 40
info: Block# = 147 ==> c0
info: Block# = 148 ==>  0
info: Block# = 149 ==> c0
info: Block# = 150 ==> c0
info: Block# = 151 ==> 40
info: Block# = 152 ==>  0
info: Block# = 153 ==>  0
info: Block# = 154 ==> c0
info: Block# = 155 ==>  0
info: Block# = 156 ==>  0
info: Block# = 157 ==> c0
info: Block# = 158 ==> c0
info: Block# = 159 ==> c0
info: Block# = 160 ==>  0
info: Block# = 161 ==> 40
info: Block# = 162 ==> c0
info: Block# = 163 ==>  0
info: Block# = 164 ==>  0
info: Block# = 165 ==> c0
info: Block# = 166 ==>  0
info: Block# = 167 ==> c0
info: Block# = 168 ==>  0
info: Block# = 169 ==>  0
info: Block# = 170 ==> 40
info: Block# = 171 ==> c0
info: Block# = 172 ==>  0
info: Block# = 173 ==> 40
info: Block# = 174 ==> 40
info: Block# = 175 ==>  0
info: Block# = 176 ==>  0
info: Block# = 177 ==> 40
info: Block# = 178 ==> 40
info: Block# = 179 ==> c0
info: Block# = 180 ==>  0
info: Block# = 181 ==> c0
info: Block# = 182 ==> 40
info: Block# = 183 ==>  0
info: Block# = 184 ==>  0
info: Block# = 185 ==> 40
info: Block# = 186 ==> c0
info: Block# = 187 ==> 40
info: Block# = 188 ==>  0
info: Block# = 189 ==> 40
info: Block# = 190 ==> c0
info: Block# = 191 ==> 40
info: Block# = 192 ==>  0
info: Block# = 193 ==> 40
info: Block# = 194 ==> c0
info: Block# = 195 ==> c0
info: Block# = 196 ==>  0
info: Block# = 197 ==> c0
info: Block# = 198 ==> c0
info: Block# = 199 ==>  0
info: Block# = 200 ==>  0
info: Block# = 201 ==>  0
info: Block# = 202 ==>  0
info: Block# = 203 ==> 40
info: Block# = 204 ==>  0
info: Block# = 205 ==> 40
info: Block# = 206 ==>  0
info: Block# = 207 ==> c0
info: Block# = 208 ==>  0
info: Block# = 209 ==> 40
info: Block# = 210 ==>  0
info: Block# = 211 ==> c0
info: Block# = 212 ==>  0
info: Block# = 213 ==> c0
info: Block# = 214 ==> c0
info: Block# = 215 ==>  0
info: Block# = 216 ==>  0
info: Block# = 217 ==> c0
info: Block# = 218 ==> c0
info: Block# = 219 ==>  0
info: Block# = 220 ==>  0
info: Block# = 221 ==> c0
info: Block# = 222 ==> c0
info: Block# = 223 ==> c0
info: Block# = 224 ==>  0
info: Block# = 225 ==> 40
info: Block# = 226 ==> c0
info: Block# = 227 ==> 40
info: Block# = 228 ==>  0
info: Block# = 229 ==> c0
info: Block# = 230 ==> 40
info: Block# = 231 ==> c0
info: Block# = 232 ==>  0
info: Block# = 233 ==> c0
info: Block# = 234 ==> c0
info: Block# = 235 ==>  0
info: Block# = 236 ==>  0
info: Block# = 237 ==>  0
info: Block# = 238 ==> c0
info: Block# = 239 ==> 40
info: Block# = 240 ==>  0
info: Block# = 241 ==> 40
info: Block# = 242 ==> c0
info: Block# = 243 ==> 40
info: Block# = 244 ==>  0
info: Block# = 245 ==> 40
info: Block# = 246 ==>  0
info: Block# = 247 ==>  0
info: Block# = 248 ==>  0
info: Block# = 249 ==> c0
info: Block# = 250 ==>  0
info: Block# = 251 ==> 40
info: Block# = 252 ==>  0
info: Block# = 253 ==> c0
info: Block# = 254 ==> c0
info: Block# = 255 ==> c0
info: Block# = 256 ==>  0
info: Block# = 257 ==> c0
info: Block# = 258 ==>  0
info: Block# = 259 ==> 40
info: Block# = 260 ==>  0
info: Block# = 261 ==> 40
info: Block# = 262 ==> 40
info: Block# = 263 ==>  0
info: Block# = 264 ==>  0
info: Block# = 265 ==>  0
info: Block# = 266 ==> c0
info: Block# = 267 ==> c0
info: Block# = 268 ==>  0
info: Block# = 269 ==> c0
info: Block# = 270 ==> 40
info: Block# = 271 ==> 40
info: Block# = 272 ==>  0
info: Block# = 273 ==> 40
info: Block# = 274 ==> c0
info: Block# = 275 ==> c0
info: Block# = 276 ==>  0
info: Block# = 277 ==>  0
info: Block# = 278 ==> 40
info: Block# = 279 ==> 40
info: Block# = 280 ==>  0
info: Block# = 281 ==> 40
info: Block# = 282 ==> 40
info: Block# = 283 ==> 40
info: Block# = 284 ==>  0
info: Block# = 285 ==> c0
info: Block# = 286 ==> 40
info: Block# = 287 ==> 40
info: Block# = 288 ==>  0
info: Block# = 289 ==> 40
info: Block# = 290 ==> 40
info: Block# = 291 ==> 40
info: Block# = 292 ==>  0
info: Block# = 293 ==> c0
info: Block# = 294 ==> c0
info: Block# = 295 ==> 40
info: Block# = 296 ==>  0
info: Block# = 297 ==> c0
info: Block# = 298 ==> 40
info: Block# = 299 ==> c0
info: Block# = 300 ==>  0
info: Block# = 301 ==>  0
info: Block# = 302 ==> c0
info: Block# = 303 ==>  0
info: Block# = 304 ==>  0
info: Block# = 305 ==> c0
info: Block# = 306 ==>  0
info: Block# = 307 ==> 40
info: Block# = 308 ==>  0
info: Block# = 309 ==> c0
info: Block# = 310 ==> 40
info: Block# = 311 ==>  0
info: Block# = 312 ==>  0
info: Block# = 313 ==>  0
info: Block# = 314 ==> c0
info: Block# = 315 ==> 40
info: Block# = 316 ==>  0
info: Block# = 317 ==> 40
info: Block# = 318 ==> 40
info: Block# = 319 ==> 40
info: Block# = 320 ==>  0
info: Block# = 321 ==> c0
info: Block# = 322 ==> c0
info: Block# = 323 ==>  0
info: Block# = 324 ==>  0
info: Block# = 325 ==> 40
info: Block# = 326 ==> c0
info: Block# = 327 ==> 40
info: Block# = 328 ==>  0
info: Block# = 329 ==> c0
info: Block# = 330 ==> c0
info: Block# = 331 ==> 40
info: Block# = 332 ==>  0
info: Block# = 333 ==> c0
info: Block# = 334 ==> c0
info: Block# = 335 ==> 40
info: Block# = 336 ==>  0
info: Block# = 337 ==> c0
info: Block# = 338 ==> 40
info: Block# = 339 ==> 40
info: Block# = 340 ==>  0
info: Block# = 341 ==> c0
info: Block# = 342 ==> c0
info: Block# = 343 ==> c0
info: Block# = 344 ==>  0
info: Block# = 345 ==> 40
info: Block# = 346 ==> c0
info: Block# = 347 ==> c0
info: Block# = 348 ==>  0
info: Block# = 349 ==> 40
info: Block# = 350 ==> c0
info: Block# = 351 ==> c0
info: Block# = 352 ==>  0
info: Block# = 353 ==> 40
info: Block# = 354 ==> c0
info: Block# = 355 ==> 40
info: Block# = 356 ==>  0
info: Block# = 357 ==> 40
info: Block# = 358 ==> c0
info: Block# = 359 ==> c0
info: Block# = 360 ==>  0
info: Block# = 361 ==> c0
info: Block# = 362 ==> 40
info: Block# = 363 ==> c0
info: Block# = 364 ==>  0
info: Block# = 365 ==> c0
info: Block# = 366 ==>  0
info: Block# = 367 ==> 40
info: Block# = 368 ==>  0
info: Block# = 369 ==> 40
info: Block# = 370 ==>  0
info: Block# = 371 ==> c0
info: Block# = 372 ==>  0
info: Block# = 373 ==> 40
info: Block# = 374 ==> c0
info: Block# = 375 ==> 40
info: Block# = 376 ==>  0
info: Block# = 377 ==>  0
info: Block# = 378 ==>  0
info: Block# = 379 ==>  0
info: Block# = 380 ==>  0
info: Block# = 381 ==> c0
info: Block# = 382 ==> 40
info: Block# = 383 ==> c0
info: Block# = 384 ==>  0
info: Block# = 385 ==> 40
info: Block# = 386 ==> c0
info: Block# = 387 ==> c0
info: Block# = 388 ==>  0
info: Block# = 389 ==> 40
info: Block# = 390 ==> c0
info: Block# = 391 ==> 40
info: Block# = 392 ==>  0
info: Block# = 393 ==> 40
info: Block# = 394 ==> 40
info: Block# = 395 ==> 40
info: Block# = 396 ==>  0
info: Block# = 397 ==> c0
info: Block# = 398 ==> c0
info: Block# = 399 ==>  0
info: Block# = 400 ==>  0
info: Block# = 401 ==>  0
info: Block# = 402 ==> 40
info: Block# = 403 ==> c0
info: Block# = 404 ==>  0
info: Block# = 405 ==> c0
info: Block# = 406 ==> c0
info: Block# = 407 ==> c0
info: Block# = 408 ==>  0
info: Block# = 409 ==> c0
info: Block# = 410 ==>  0
info: Block# = 411 ==> 40
info: Block# = 412 ==>  0
info: Block# = 413 ==>  0
info: Block# = 414 ==> 40
info: Block# = 415 ==> 40
info: Block# = 416 ==>  0
info: Block# = 417 ==> 40
info: Block# = 418 ==> c0
info: Block# = 419 ==> c0
info: Block# = 420 ==>  0
info: Block# = 421 ==> c0
info: Block# = 422 ==> c0
info: Block# = 423 ==> c0
info: Block# = 424 ==>  0
info: Block# = 425 ==> c0
info: Block# = 426 ==> c0
info: Block# = 427 ==> 40
info: Block# = 428 ==>  0
info: Block# = 429 ==> c0
info: Block# = 430 ==> 40
info: Block# = 431 ==> c0
info: Block# = 432 ==>  0
info: Block# = 433 ==> c0
info: Block# = 434 ==> 40
info: Block# = 435 ==> 40
info: Block# = 436 ==>  0
info: Block# = 437 ==> c0
info: Block# = 438 ==>  0
info: Block# = 439 ==> 40
info: Block# = 440 ==>  0
info: Block# = 441 ==>  0
info: Block# = 442 ==> c0
info: Block# = 443 ==> c0
info: Block# = 444 ==>  0
info: Block# = 445 ==> c0
info: Block# = 446 ==> c0
info: Block# = 447 ==> c0
info: Block# = 448 ==>  0
info: Block# = 449 ==>  0
info: Block# = 450 ==>  0
info: Block# = 451 ==> 40
info: Block# = 452 ==>  0
info: Block# = 453 ==>  0
info: Block# = 454 ==> c0
info: Block# = 455 ==> c0
info: Block# = 456 ==>  0
info: Block# = 457 ==> c0
info: Block# = 458 ==>  0
info: Block# = 459 ==>  0
info: Block# = 460 ==>  0
info: Block# = 461 ==> c0
info: Block# = 462 ==> c0
info: Block# = 463 ==>  0
info: Block# = 464 ==>  0
info: Block# = 465 ==> c0
info: Block# = 466 ==> c0
info: Block# = 467 ==> 40
info: Block# = 468 ==>  0
info: Block# = 469 ==> 40
info: Block# = 470 ==> c0
info: Block# = 471 ==>  0
info: Block# = 472 ==>  0
info: Block# = 473 ==> 40
info: Block# = 474 ==> 40
info: Block# = 475 ==>  0
info: Block# = 476 ==>  0
info: Block# = 477 ==> c0
info: Block# = 478 ==> c0
info: Block# = 479 ==> 40
info: Block# = 480 ==>  0
info: Block# = 481 ==> 40
info: Block# = 482 ==> c0
info: Block# = 483 ==> c0
info: Block# = 484 ==>  0
info: Block# = 485 ==>  0
info: Block# = 486 ==> c0
info: Block# = 487 ==> 40
info: Block# = 488 ==>  0
info: Block# = 489 ==> c0
info: Block# = 490 ==> 40
info: Block# = 491 ==> c0
info: Block# = 492 ==>  0
info: Block# = 493 ==> 40
info: Block# = 494 ==> 40
info: Block# = 495 ==> 40
info: Block# = 496 ==>  0
info: Block# = 497 ==> c0
info: Block# = 498 ==> c0
info: Block# = 499 ==> c0
info: Block# = 500 ==>  0
info: Block# = 501 ==> c0
info: Block# = 502 ==>  0
info: Block# = 503 ==> c0
info: Block# = 504 ==>  0
info: Block# = 505 ==> 40
info: Block# = 506 ==> c0
info: Block# = 507 ==> 40
info: Block# = 508 ==>  0
info: Block# = 509 ==> c0
info: Block# = 510 ==> c0
info: Block# = 511 ==> 40
Switch at instruction count:3390
info: Entering event queue @ 0.  Starting simulation...
info: Increasing stack size by one page.
Switched CPUS @ tick 1711000
switching cpus
**** REAL SIMULATION ****
info: Entering event queue @ 1711000.  Starting simulation...
info: Increasing stack size by one page.
info: Increasing stack size by one page.
info: Increasing stack size by one page.
info: Increasing stack size by one page.
info: Increasing stack size by one page.
info: Increasing stack size by one page.
info: Increasing stack size by one page.
info: Increasing stack size by one page.
info: Increasing stack size by one page.
info: Increasing stack size by one page.
info: Increasing stack size by one page.
info: Increasing stack size by one page.
info: Increasing stack size by one page.
info: Increasing stack size by one page.
info: Increasing stack size by one page.
info: Increasing stack size by one page.
info: Increasing stack size by one page.
info: Increasing stack size by one page.
info: Increasing stack size by one page.
info: Increasing stack size by one page.
info: Increasing stack size by one page.
info: Increasing stack size by one page.
info: Increasing stack size by one page.
info: Increasing stack size by one page.
info: Increasing stack size by one page.
info: Increasing stack size by one page.
info: Increasing stack size by one page.
info: Increasing stack size by one page.
info: Increasing stack size by one page.
info: Increasing stack size by one page.
info: Increasing stack size by one page.
info: Increasing stack size by one page.
info: Increasing stack size by one page.
info: Increasing stack size by one page.
info: Increasing stack size by one page.
info: Increasing stack size by one page.
info: Increasing stack size by one page.
info: Increasing stack size by one page.
info: Increasing stack size by one page.
info: Increasing stack size by one page.
info: Increasing stack size by one page.
info: Increasing stack size by one page.
info: Increasing stack size by one page.
info: Increasing stack size by one page.
info: Increasing stack size by one page.
16185500: global: Approximate Region Added: begin=0x12010, end=0x52010, Table Size=1
31809500: global: Approximate Region Added: begin=0x1200cf470, end=0x1200cf674, Table Size=2
susan_edges
susan_thin
i=4, j=63, y=512, x=512
i=4, j=403, y=512, x=512
i=4, j=403, y=512, x=512
i=4, j=422, y=512, x=512
i=4, j=422, y=512, x=512
i=4, j=505, y=512, x=512
i=4, j=504, y=512, x=512
i=4, j=504, y=512, x=512
i=4, j=505, y=512, x=512
i=4, j=506, y=512, x=512
i=5, j=167, y=512, x=512
i=5, j=293, y=512, x=512
i=5, j=392, y=512, x=512
i=5, j=404, y=512, x=512
i=5, j=423, y=512, x=512
i=5, j=507, y=512, x=512
i=6, j=60, y=512, x=512
i=6, j=61, y=512, x=512
i=6, j=404, y=512, x=512
i=6, j=423, y=512, x=512
i=6, j=507, y=512, x=512
i=7, j=404, y=512, x=512
i=6, j=404, y=512, x=512
i=6, j=423, y=512, x=512
i=6, j=507, y=512, x=512
i=7, j=405, y=512, x=512
i=7, j=424, y=512, x=512
i=7, j=505, y=512, x=512
i=6, j=507, y=512, x=512
i=7, j=405, y=512, x=512
i=7, j=424, y=512, x=512
i=7, j=506, y=512, x=512
i=8, j=391, y=512, x=512
i=8, j=405, y=512, x=512
i=7, j=405, y=512, x=512
i=7, j=424, y=512, x=512
i=7, j=506, y=512, x=512
i=8, j=406, y=512, x=512
i=8, j=425, y=512, x=512
i=8, j=438, y=512, x=512
i=8, j=504, y=512, x=512
i=7, j=506, y=512, x=512
i=8, j=406, y=512, x=512
i=8, j=425, y=512, x=512
i=8, j=505, y=512, x=512
i=9, j=295, y=512, x=512
i=9, j=406, y=512, x=512
i=9, j=425, y=512, x=512
i=9, j=440, y=512, x=512
i=9, j=503, y=512, x=512
i=8, j=505, y=512, x=512
i=9, j=406, y=512, x=512
i=9, j=425, y=512, x=512
i=9, j=504, y=512, x=512
i=10, j=69, y=512, x=512
i=10, j=266, y=512, x=512
i=10, j=406, y=512, x=512
i=9, j=406, y=512, x=512
i=9, j=425, y=512, x=512
i=9, j=504, y=512, x=512
i=10, j=407, y=512, x=512
i=10, j=426, y=512, x=512
i=10, j=501, y=512, x=512
i=9, j=504, y=512, x=512
i=10, j=407, y=512, x=512
i=10, j=426, y=512, x=512
i=10, j=502, y=512, x=512
i=10, j=503, y=512, x=512
i=11, j=315, y=512, x=512
i=11, j=407, y=512, x=512
i=11, j=426, y=512, x=512
i=11, j=501, y=512, x=512
i=12, j=63, y=512, x=512
i=12, j=171, y=512, x=512
i=12, j=407, y=512, x=512
i=11, j=407, y=512, x=512
i=11, j=426, y=512, x=512
i=11, j=501, y=512, x=512
i=12, j=408, y=512, x=512
i=12, j=427, y=512, x=512
i=12, j=478, y=512, x=512
i=12, j=500, y=512, x=512
i=12, j=501, y=512, x=512
i=11, j=501, y=512, x=512
i=12, j=408, y=512, x=512
i=12, j=427, y=512, x=512
i=12, j=500, y=512, x=512
i=13, j=133, y=512, x=512
i=13, j=200, y=512, x=512
i=13, j=246, y=512, x=512
i=13, j=408, y=512, x=512
i=12, j=408, y=512, x=512
i=12, j=427, y=512, x=512
i=12, j=500, y=512, x=512
i=13, j=409, y=512, x=512
i=13, j=428, y=512, x=512
i=13, j=434, y=512, x=512
i=13, j=499, y=512, x=512
i=13, j=503, y=512, x=512
i=12, j=503, y=512, x=512
i=11, j=502, y=512, x=512
i=12, j=408, y=512, x=512
i=12, j=427, y=512, x=512
i=12, j=500, y=512, x=512
i=12, j=503, y=512, x=512
i=13, j=409, y=512, x=512
i=13, j=428, y=512, x=512
i=13, j=499, y=512, x=512
i=13, j=503, y=512, x=512
i=14, j=29, y=512, x=512
i=14, j=259, y=512, x=512
i=14, j=409, y=512, x=512
i=14, j=428, y=512, x=512
i=14, j=497, y=512, x=512
i=13, j=499, y=512, x=512
i=13, j=503, y=512, x=512
i=14, j=409, y=512, x=512
i=14, j=428, y=512, x=512
i=14, j=498, y=512, x=512
i=14, j=499, y=512, x=512
i=13, j=499, y=512, x=512
i=13, j=503, y=512, x=512
i=14, j=409, y=512, x=512
i=14, j=428, y=512, x=512
i=14, j=498, y=512, x=512
i=14, j=503, y=512, x=512
i=15, j=45, y=512, x=512
i=15, j=318, y=512, x=512
i=15, j=397, y=512, x=512
i=15, j=409, y=512, x=512
i=14, j=409, y=512, x=512
i=14, j=428, y=512, x=512
i=14, j=498, y=512, x=512
i=14, j=503, y=512, x=512
i=15, j=410, y=512, x=512
i=15, j=429, y=512, x=512
i=15, j=496, y=512, x=512
i=14, j=498, y=512, x=512
i=14, j=503, y=512, x=512
i=15, j=410, y=512, x=512
i=15, j=429, y=512, x=512
i=15, j=497, y=512, x=512
i=16, j=166, y=512, x=512
i=16, j=271, y=512, x=512
i=16, j=410, y=512, x=512
i=16, j=429, y=512, x=512
i=16, j=495, y=512, x=512
i=15, j=497, y=512, x=512
i=16, j=410, y=512, x=512
i=16, j=429, y=512, x=512
i=16, j=496, y=512, x=512
i=17, j=61, y=512, x=512
i=17, j=90, y=512, x=512
i=17, j=120, y=512, x=512
i=17, j=332, y=512, x=512
i=17, j=375, y=512, x=512
i=17, j=410, y=512, x=512
i=17, j=430, y=512, x=512
i=17, j=494, y=512, x=512
i=16, j=496, y=512, x=512
i=17, j=410, y=512, x=512
i=17, j=430, y=512, x=512
i=17, j=495, y=512, x=512
i=18, j=411, y=512, x=512
i=18, j=430, y=512, x=512
i=18, j=493, y=512, x=512
i=17, j=495, y=512, x=512
i=18, j=411, y=512, x=512
i=18, j=430, y=512, x=512
i=18, j=494, y=512, x=512
i=19, j=24, y=512, x=512
i=19, j=62, y=512, x=512
i=18, j=63, y=512, x=512
i=18, j=411, y=512, x=512
i=18, j=430, y=512, x=512
i=18, j=494, y=512, x=512
i=19, j=62, y=512, x=512
i=19, j=63, y=512, x=512
i=19, j=264, y=512, x=512
i=19, j=411, y=512, x=512
i=18, j=411, y=512, x=512
i=18, j=430, y=512, x=512
i=18, j=494, y=512, x=512
i=19, j=63, y=512, x=512
i=19, j=412, y=512, x=512
i=19, j=430, y=512, x=512
i=19, j=492, y=512, x=512
i=18, j=494, y=512, x=512
i=19, j=63, y=512, x=512
i=19, j=412, y=512, x=512
i=19, j=430, y=512, x=512
i=19, j=493, y=512, x=512
i=20, j=63, y=512, x=512
i=20, j=62, y=512, x=512
i=20, j=63, y=512, x=512
i=20, j=312, y=512, x=512
i=20, j=412, y=512, x=512
i=19, j=412, y=512, x=512
i=19, j=430, y=512, x=512
i=19, j=493, y=512, x=512
i=20, j=62, y=512, x=512
i=20, j=63, y=512, x=512
i=20, j=413, y=512, x=512
i=20, j=431, y=512, x=512
i=20, j=491, y=512, x=512
i=19, j=493, y=512, x=512
i=20, j=62, y=512, x=512
i=20, j=63, y=512, x=512
i=20, j=413, y=512, x=512
i=20, j=431, y=512, x=512
i=20, j=492, y=512, x=512
i=20, j=499, y=512, x=512
i=21, j=167, y=512, x=512
i=21, j=293, y=512, x=512
i=21, j=392, y=512, x=512
i=21, j=413, y=512, x=512
i=21, j=432, y=512, x=512
i=21, j=449, y=512, x=512
i=21, j=489, y=512, x=512
i=20, j=492, y=512, x=512
i=21, j=413, y=512, x=512
i=21, j=432, y=512, x=512
i=21, j=490, y=512, x=512
i=21, j=491, y=512, x=512
i=22, j=56, y=512, x=512
i=22, j=62, y=512, x=512
i=22, j=80, y=512, x=512
i=22, j=238, y=512, x=512
i=22, j=301, y=512, x=512
i=22, j=413, y=512, x=512
i=21, j=413, y=512, x=512
i=21, j=432, y=512, x=512
i=21, j=490, y=512, x=512
i=21, j=491, y=512, x=512
i=22, j=414, y=512, x=512
i=22, j=432, y=512, x=512
i=21, j=432, y=512, x=512
i=21, j=490, y=512, x=512
i=21, j=491, y=512, x=512
i=22, j=414, y=512, x=512
i=22, j=433, y=512, x=512
i=22, j=489, y=512, x=512
i=23, j=414, y=512, x=512
i=23, j=433, y=512, x=512
i=23, j=487, y=512, x=512
i=22, j=489, y=512, x=512
i=23, j=414, y=512, x=512
i=23, j=433, y=512, x=512
i=23, j=488, y=512, x=512
i=24, j=85, y=512, x=512
i=24, j=414, y=512, x=512
i=24, j=433, y=512, x=512
i=23, j=433, y=512, x=512
i=23, j=488, y=512, x=512
i=24, j=414, y=512, x=512
i=24, j=434, y=512, x=512
i=24, j=438, y=512, x=512
i=24, j=487, y=512, x=512
i=24, j=490, y=512, x=512
i=23, j=489, y=512, x=512
i=24, j=414, y=512, x=512
i=24, j=434, y=512, x=512
i=24, j=487, y=512, x=512
i=24, j=490, y=512, x=512
i=24, j=506, y=512, x=512
i=25, j=415, y=512, x=512
i=25, j=435, y=512, x=512
i=25, j=440, y=512, x=512
i=25, j=486, y=512, x=512
i=25, j=491, y=512, x=512
i=24, j=492, y=512, x=512
i=23, j=491, y=512, x=512
i=24, j=414, y=512, x=512
i=24, j=434, y=512, x=512
i=24, j=487, y=512, x=512
i=24, j=490, y=512, x=512
i=24, j=492, y=512, x=512
i=25, j=415, y=512, x=512
i=25, j=435, y=512, x=512
i=25, j=486, y=512, x=512
i=25, j=491, y=512, x=512
i=26, j=59, y=512, x=512
i=26, j=409, y=512, x=512
i=26, j=415, y=512, x=512
i=25, j=415, y=512, x=512
i=25, j=435, y=512, x=512
i=25, j=486, y=512, x=512
i=25, j=491, y=512, x=512
i=26, j=416, y=512, x=512
i=26, j=435, y=512, x=512
i=26, j=464, y=512, x=512
i=26, j=484, y=512, x=512
i=25, j=486, y=512, x=512
i=25, j=491, y=512, x=512
i=26, j=416, y=512, x=512
i=26, j=435, y=512, x=512
i=26, j=485, y=512, x=512
i=26, j=486, y=512, x=512
i=25, j=486, y=512, x=512
i=25, j=491, y=512, x=512
i=26, j=416, y=512, x=512
i=26, j=435, y=512, x=512
i=26, j=485, y=512, x=512
i=26, j=499, y=512, x=512
i=27, j=315, y=512, x=512
i=27, j=416, y=512, x=512
i=27, j=435, y=512, x=512
i=27, j=438, y=512, x=512
i=27, j=484, y=512, x=512
i=28, j=168, y=512, x=512
i=28, j=416, y=512, x=512
i=27, j=416, y=512, x=512
i=27, j=435, y=512, x=512
i=27, j=484, y=512, x=512
i=28, j=417, y=512, x=512
i=28, j=436, y=512, x=512
i=28, j=483, y=512, x=512
i=27, j=484, y=512, x=512
i=28, j=417, y=512, x=512
i=28, j=436, y=512, x=512
i=28, j=484, y=512, x=512
i=29, j=133, y=512, x=512
i=29, j=200, y=512, x=512
i=29, j=292, y=512, x=512
i=29, j=417, y=512, x=512
i=28, j=417, y=512, x=512
i=28, j=436, y=512, x=512
i=28, j=484, y=512, x=512
i=29, j=418, y=512, x=512
i=29, j=437, y=512, x=512
i=29, j=482, y=512, x=512
i=28, j=484, y=512, x=512
i=29, j=418, y=512, x=512
i=29, j=437, y=512, x=512
i=29, j=483, y=512, x=512
i=30, j=259, y=512, x=512
i=30, j=418, y=512, x=512
i=30, j=437, y=512, x=512
i=30, j=481, y=512, x=512
i=29, j=483, y=512, x=512
i=30, j=418, y=512, x=512
i=30, j=437, y=512, x=512
i=30, j=482, y=512, x=512
i=31, j=45, y=512, x=512
i=31, j=374, y=512, x=512
i=31, j=418, y=512, x=512
i=30, j=418, y=512, x=512
i=30, j=437, y=512, x=512
i=30, j=482, y=512, x=512
i=31, j=419, y=512, x=512
i=31, j=437, y=512, x=512
i=30, j=437, y=512, x=512
i=30, j=482, y=512, x=512
i=31, j=419, y=512, x=512
i=31, j=438, y=512, x=512
i=31, j=480, y=512, x=512
i=30, j=482, y=512, x=512
i=31, j=419, y=512, x=512
i=31, j=438, y=512, x=512
i=31, j=481, y=512, x=512
i=32, j=166, y=512, x=512
i=32, j=271, y=512, x=512
i=32, j=419, y=512, x=512
i=32, j=439, y=512, x=512
i=32, j=479, y=512, x=512
i=31, j=481, y=512, x=512
i=32, j=419, y=512, x=512
i=32, j=439, y=512, x=512
i=32, j=480, y=512, x=512
i=33, j=120, y=512, x=512
i=33, j=196, y=512, x=512
i=33, j=375, y=512, x=512
i=33, j=419, y=512, x=512
i=32, j=419, y=512, x=512
i=32, j=439, y=512, x=512
i=32, j=480, y=512, x=512
i=33, j=420, y=512, x=512
i=33, j=439, y=512, x=512
i=33, j=478, y=512, x=512
i=32, j=480, y=512, x=512
i=33, j=420, y=512, x=512
i=33, j=439, y=512, x=512
i=33, j=479, y=512, x=512
i=34, j=420, y=512, x=512
i=33, j=420, y=512, x=512
i=33, j=439, y=512, x=512
i=33, j=479, y=512, x=512
i=34, j=421, y=512, x=512
i=34, j=440, y=512, x=512
i=34, j=477, y=512, x=512
i=33, j=479, y=512, x=512
i=34, j=421, y=512, x=512
i=34, j=440, y=512, x=512
i=34, j=478, y=512, x=512
i=34, j=491, y=512, x=512
i=35, j=24, y=512, x=512
i=35, j=227, y=512, x=512
i=35, j=323, y=512, x=512
i=35, j=348, y=512, x=512
i=35, j=421, y=512, x=512
i=35, j=440, y=512, x=512
i=35, j=476, y=512, x=512
i=34, j=478, y=512, x=512
i=35, j=421, y=512, x=512
i=35, j=440, y=512, x=512
i=35, j=477, y=512, x=512
i=35, j=494, y=512, x=512
i=36, j=63, y=512, x=512
i=36, j=421, y=512, x=512
i=36, j=441, y=512, x=512
i=36, j=475, y=512, x=512
i=35, j=477, y=512, x=512
i=36, j=421, y=512, x=512
i=36, j=441, y=512, x=512
i=36, j=476, y=512, x=512
i=37, j=21, y=512, x=512
i=37, j=167, y=512, x=512
i=37, j=234, y=512, x=512
i=37, j=293, y=512, x=512
i=37, j=392, y=512, x=512
i=37, j=422, y=512, x=512
i=37, j=441, y=512, x=512
i=37, j=449, y=512, x=512
i=37, j=474, y=512, x=512
i=36, j=476, y=512, x=512
i=37, j=422, y=512, x=512
i=37, j=441, y=512, x=512
i=37, j=475, y=512, x=512
i=38, j=238, y=512, x=512
i=38, j=301, y=512, x=512
i=38, j=422, y=512, x=512
i=37, j=422, y=512, x=512
i=37, j=441, y=512, x=512
i=37, j=475, y=512, x=512
i=38, j=423, y=512, x=512
i=38, j=442, y=512, x=512
i=38, j=443, y=512, x=512
i=37, j=475, y=512, x=512
i=38, j=423, y=512, x=512
i=38, j=442, y=512, x=512
i=38, j=473, y=512, x=512
i=37, j=475, y=512, x=512
i=38, j=423, y=512, x=512
i=38, j=442, y=512, x=512
i=38, j=474, y=512, x=512
i=39, j=62, y=512, x=512
i=39, j=423, y=512, x=512
i=39, j=443, y=512, x=512
i=39, j=472, y=512, x=512
i=38, j=474, y=512, x=512
i=39, j=423, y=512, x=512
i=39, j=443, y=512, x=512
i=39, j=473, y=512, x=512
i=39, j=488, y=512, x=512
i=39, j=489, y=512, x=512
i=39, j=490, y=512, x=512
i=39, j=491, y=512, x=512
i=39, j=494, y=512, x=512
i=40, j=102, y=512, x=512
i=40, j=423, y=512, x=512
i=40, j=444, y=512, x=512
i=40, j=471, y=512, x=512
i=39, j=473, y=512, x=512
i=39, j=488, y=512, x=512
i=39, j=489, y=512, x=512
i=39, j=490, y=512, x=512
i=39, j=491, y=512, x=512
i=40, j=423, y=512, x=512
i=40, j=444, y=512, x=512
i=40, j=472, y=512, x=512
i=40, j=506, y=512, x=512
i=41, j=62, y=512, x=512
i=41, j=295, y=512, x=512
i=41, j=424, y=512, x=512
i=41, j=444, y=512, x=512
i=41, j=470, y=512, x=512
i=40, j=472, y=512, x=512
i=41, j=424, y=512, x=512
i=41, j=444, y=512, x=512
i=41, j=471, y=512, x=512
i=42, j=59, y=512, x=512
i=42, j=266, y=512, x=512
i=42, j=409, y=512, x=512
i=42, j=424, y=512, x=512
i=42, j=445, y=512, x=512
i=42, j=464, y=512, x=512
i=42, j=469, y=512, x=512
i=41, j=471, y=512, x=512
i=42, j=424, y=512, x=512
i=42, j=444, y=512, x=512
i=42, j=470, y=512, x=512
i=43, j=189, y=512, x=512
i=43, j=425, y=512, x=512
i=43, j=426, y=512, x=512
i=42, j=444, y=512, x=512
i=42, j=470, y=512, x=512
i=43, j=425, y=512, x=512
i=43, j=438, y=512, x=512
i=43, j=444, y=512, x=512
i=43, j=468, y=512, x=512
i=42, j=470, y=512, x=512
i=43, j=425, y=512, x=512
i=43, j=444, y=512, x=512
i=43, j=469, y=512, x=512
i=44, j=63, y=512, x=512
i=44, j=223, y=512, x=512
i=44, j=224, y=512, x=512
i=44, j=227, y=512, x=512
i=44, j=226, y=512, x=512
i=44, j=227, y=512, x=512
i=44, j=253, y=512, x=512
i=44, j=390, y=512, x=512
i=44, j=426, y=512, x=512
i=44, j=445, y=512, x=512
i=44, j=446, y=512, x=512
i=43, j=469, y=512, x=512
i=44, j=223, y=512, x=512
i=44, j=224, y=512, x=512
i=43, j=425, y=512, x=512
i=43, j=444, y=512, x=512
i=43, j=469, y=512, x=512
i=44, j=223, y=512, x=512
i=44, j=226, y=512, x=512
i=44, j=227, y=512, x=512
i=44, j=426, y=512, x=512
i=44, j=445, y=512, x=512
i=44, j=467, y=512, x=512
i=43, j=469, y=512, x=512
i=44, j=223, y=512, x=512
i=44, j=226, y=512, x=512
i=44, j=227, y=512, x=512
i=44, j=426, y=512, x=512
i=44, j=445, y=512, x=512
i=44, j=468, y=512, x=512
i=45, j=133, y=512, x=512
i=45, j=200, y=512, x=512
i=45, j=214, y=512, x=512
i=45, j=217, y=512, x=512
i=45, j=219, y=512, x=512
i=45, j=221, y=512, x=512
i=44, j=226, y=512, x=512
i=44, j=227, y=512, x=512
i=44, j=426, y=512, x=512
i=44, j=445, y=512, x=512
i=44, j=468, y=512, x=512
i=45, j=217, y=512, x=512
i=45, j=219, y=512, x=512
i=45, j=222, y=512, x=512
i=45, j=223, y=512, x=512
i=45, j=224, y=512, x=512
i=45, j=225, y=512, x=512
i=45, j=228, y=512, x=512
i=45, j=229, y=512, x=512
i=45, j=230, y=512, x=512
i=45, j=231, y=512, x=512
i=45, j=232, y=512, x=512
i=45, j=233, y=512, x=512
i=45, j=234, y=512, x=512
i=45, j=235, y=512, x=512
i=45, j=292, y=512, x=512
i=45, j=426, y=512, x=512
i=44, j=426, y=512, x=512
i=44, j=445, y=512, x=512
i=44, j=468, y=512, x=512
i=45, j=217, y=512, x=512
i=45, j=219, y=512, x=512
i=45, j=222, y=512, x=512
i=45, j=223, y=512, x=512
i=45, j=224, y=512, x=512
i=45, j=225, y=512, x=512
i=45, j=228, y=512, x=512
i=45, j=229, y=512, x=512
i=45, j=230, y=512, x=512
i=45, j=231, y=512, x=512
i=45, j=232, y=512, x=512
i=45, j=233, y=512, x=512
i=45, j=234, y=512, x=512
i=45, j=235, y=512, x=512
i=45, j=427, y=512, x=512
i=45, j=446, y=512, x=512
i=45, j=466, y=512, x=512
i=44, j=468, y=512, x=512
i=45, j=217, y=512, x=512
i=45, j=219, y=512, x=512
i=45, j=222, y=512, x=512
i=45, j=223, y=512, x=512
i=45, j=224, y=512, x=512
i=45, j=225, y=512, x=512
i=45, j=228, y=512, x=512
i=45, j=229, y=512, x=512
i=45, j=230, y=512, x=512
i=45, j=231, y=512, x=512
i=45, j=232, y=512, x=512
i=45, j=233, y=512, x=512
i=45, j=234, y=512, x=512
i=45, j=235, y=512, x=512
i=45, j=427, y=512, x=512
i=45, j=446, y=512, x=512
i=45, j=467, y=512, x=512
i=46, j=62, y=512, x=512
i=46, j=170, y=512, x=512
i=46, j=217, y=512, x=512
i=46, j=218, y=512, x=512
i=46, j=220, y=512, x=512
i=46, j=221, y=512, x=512
i=46, j=226, y=512, x=512
i=45, j=227, y=512, x=512
i=45, j=228, y=512, x=512
i=45, j=229, y=512, x=512
i=45, j=230, y=512, x=512
i=45, j=231, y=512, x=512
i=45, j=232, y=512, x=512
i=45, j=233, y=512, x=512
i=45, j=234, y=512, x=512
i=45, j=235, y=512, x=512
i=45, j=427, y=512, x=512
i=45, j=446, y=512, x=512
i=45, j=467, y=512, x=512
i=46, j=217, y=512, x=512
i=46, j=218, y=512, x=512
i=46, j=220, y=512, x=512
i=46, j=221, y=512, x=512
i=46, j=226, y=512, x=512
i=46, j=236, y=512, x=512
i=46, j=237, y=512, x=512
i=46, j=238, y=512, x=512
i=46, j=239, y=512, x=512
i=46, j=259, y=512, x=512
i=46, j=427, y=512, x=512
i=46, j=446, y=512, x=512
i=45, j=446, y=512, x=512
i=45, j=467, y=512, x=512
i=46, j=217, y=512, x=512
i=46, j=218, y=512, x=512
i=46, j=220, y=512, x=512
i=46, j=221, y=512, x=512
i=46, j=226, y=512, x=512
i=46, j=236, y=512, x=512
i=46, j=237, y=512, x=512
i=46, j=238, y=512, x=512
i=46, j=239, y=512, x=512
i=46, j=427, y=512, x=512
i=46, j=447, y=512, x=512
i=46, j=465, y=512, x=512
i=45, j=467, y=512, x=512
i=46, j=217, y=512, x=512
i=46, j=218, y=512, x=512
i=46, j=220, y=512, x=512
i=46, j=221, y=512, x=512
i=46, j=226, y=512, x=512
i=46, j=236, y=512, x=512
i=46, j=237, y=512, x=512
i=46, j=238, y=512, x=512
i=46, j=239, y=512, x=512
i=46, j=427, y=512, x=512
i=46, j=447, y=512, x=512
i=46, j=466, y=512, x=512
i=47, j=45, y=512, x=512
i=47, j=58, y=512, x=512
i=47, j=206, y=512, x=512
i=47, j=208, y=512, x=512
i=47, j=209, y=512, x=512
i=46, j=209, y=512, x=512
i=46, j=217, y=512, x=512
i=46, j=218, y=512, x=512
i=46, j=220, y=512, x=512
i=46, j=221, y=512, x=512
i=46, j=226, y=512, x=512
i=46, j=236, y=512, x=512
i=46, j=237, y=512, x=512
i=46, j=238, y=512, x=512
i=46, j=239, y=512, x=512
i=46, j=427, y=512, x=512
i=46, j=447, y=512, x=512
i=46, j=466, y=512, x=512
i=47, j=206, y=512, x=512
i=47, j=208, y=512, x=512
i=47, j=209, y=512, x=512
i=46, j=209, y=512, x=512
i=46, j=217, y=512, x=512
i=46, j=218, y=512, x=512
i=46, j=220, y=512, x=512
i=46, j=221, y=512, x=512
i=46, j=226, y=512, x=512
i=46, j=236, y=512, x=512
i=46, j=237, y=512, x=512
i=46, j=238, y=512, x=512
i=46, j=239, y=512, x=512
i=46, j=427, y=512, x=512
i=46, j=447, y=512, x=512
i=46, j=466, y=512, x=512
i=47, j=206, y=512, x=512
i=47, j=208, y=512, x=512
i=47, j=215, y=512, x=512
i=46, j=215, y=512, x=512
i=46, j=217, y=512, x=512
i=46, j=218, y=512, x=512
i=46, j=220, y=512, x=512
i=46, j=221, y=512, x=512
i=46, j=226, y=512, x=512
i=46, j=236, y=512, x=512
i=46, j=237, y=512, x=512
i=46, j=238, y=512, x=512
i=46, j=239, y=512, x=512
i=46, j=427, y=512, x=512
i=46, j=447, y=512, x=512
i=46, j=466, y=512, x=512
i=47, j=206, y=512, x=512
i=47, j=208, y=512, x=512
i=47, j=215, y=512, x=512
i=46, j=215, y=512, x=512
i=45, j=214, y=512, x=512
i=45, j=217, y=512, x=512
i=45, j=219, y=512, x=512
i=45, j=222, y=512, x=512
i=45, j=223, y=512, x=512
i=45, j=224, y=512, x=512
i=45, j=225, y=512, x=512
i=45, j=227, y=512, x=512
i=45, j=228, y=512, x=512
i=45, j=229, y=512, x=512
i=45, j=230, y=512, x=512
i=45, j=231, y=512, x=512
i=45, j=232, y=512, x=512
i=45, j=233, y=512, x=512
i=45, j=234, y=512, x=512
i=45, j=235, y=512, x=512
i=45, j=427, y=512, x=512
i=45, j=446, y=512, x=512
i=45, j=467, y=512, x=512
i=46, j=209, y=512, x=512
i=46, j=215, y=512, x=512
i=46, j=217, y=512, x=512
i=46, j=218, y=512, x=512
i=46, j=220, y=512, x=512
i=46, j=221, y=512, x=512
i=46, j=226, y=512, x=512
i=46, j=236, y=512, x=512
i=46, j=237, y=512, x=512
i=46, j=238, y=512, x=512
i=46, j=239, y=512, x=512
i=46, j=427, y=512, x=512
i=46, j=447, y=512, x=512
i=46, j=466, y=512, x=512
i=47, j=206, y=512, x=512
i=47, j=208, y=512, x=512
i=47, j=216, y=512, x=512
i=47, j=220, y=512, x=512
i=47, j=240, y=512, x=512
i=47, j=241, y=512, x=512
i=47, j=242, y=512, x=512
i=47, j=243, y=512, x=512
i=47, j=397, y=512, x=512
i=47, j=427, y=512, x=512
i=46, j=427, y=512, x=512
i=46, j=447, y=512, x=512
i=46, j=466, y=512, x=512
i=47, j=206, y=512, x=512
i=47, j=208, y=512, x=512
i=47, j=216, y=512, x=512
i=47, j=220, y=512, x=512
i=47, j=240, y=512, x=512
i=47, j=241, y=512, x=512
i=47, j=242, y=512, x=512
i=47, j=243, y=512, x=512
i=47, j=428, y=512, x=512
i=47, j=438, y=512, x=512
i=47, j=447, y=512, x=512
i=47, j=451, y=512, x=512
i=47, j=464, y=512, x=512
i=46, j=466, y=512, x=512
i=47, j=206, y=512, x=512
i=47, j=208, y=512, x=512
i=47, j=216, y=512, x=512
i=47, j=220, y=512, x=512
i=47, j=240, y=512, x=512
i=47, j=241, y=512, x=512
i=47, j=242, y=512, x=512
i=47, j=243, y=512, x=512
i=47, j=428, y=512, x=512
i=47, j=447, y=512, x=512
i=47, j=465, y=512, x=512
i=48, j=166, y=512, x=512
i=48, j=199, y=512, x=512
i=48, j=202, y=512, x=512
i=48, j=204, y=512, x=512
i=48, j=206, y=512, x=512
i=47, j=206, y=512, x=512
i=47, j=208, y=512, x=512
i=47, j=216, y=512, x=512
i=47, j=220, y=512, x=512
i=47, j=240, y=512, x=512
i=47, j=241, y=512, x=512
i=47, j=242, y=512, x=512
i=47, j=243, y=512, x=512
i=47, j=428, y=512, x=512
i=47, j=447, y=512, x=512
i=47, j=465, y=512, x=512
i=48, j=207, y=512, x=512
i=48, j=223, y=512, x=512
i=48, j=244, y=512, x=512
i=48, j=245, y=512, x=512
i=48, j=246, y=512, x=512
i=48, j=247, y=512, x=512
i=48, j=271, y=512, x=512
i=48, j=428, y=512, x=512
i=48, j=448, y=512, x=512
i=48, j=463, y=512, x=512
i=47, j=465, y=512, x=512
i=48, j=207, y=512, x=512
i=48, j=244, y=512, x=512
i=48, j=245, y=512, x=512
i=48, j=246, y=512, x=512
i=48, j=247, y=512, x=512
i=48, j=428, y=512, x=512
i=48, j=448, y=512, x=512
i=48, j=464, y=512, x=512
i=49, j=62, y=512, x=512
i=49, j=120, y=512, x=512
i=49, j=194, y=512, x=512
i=49, j=196, y=512, x=512
i=49, j=197, y=512, x=512
i=49, j=219, y=512, x=512
i=49, j=227, y=512, x=512
i=49, j=248, y=512, x=512
i=49, j=249, y=512, x=512
i=49, j=250, y=512, x=512
i=49, j=375, y=512, x=512
i=49, j=428, y=512, x=512
i=48, j=428, y=512, x=512
i=48, j=448, y=512, x=512
i=48, j=464, y=512, x=512
i=49, j=194, y=512, x=512
i=49, j=196, y=512, x=512
i=49, j=197, y=512, x=512
i=49, j=248, y=512, x=512
i=49, j=249, y=512, x=512
i=49, j=250, y=512, x=512
i=49, j=429, y=512, x=512
i=49, j=448, y=512, x=512
i=49, j=462, y=512, x=512
i=48, j=464, y=512, x=512
i=49, j=194, y=512, x=512
i=49, j=196, y=512, x=512
i=49, j=197, y=512, x=512
i=49, j=248, y=512, x=512
i=49, j=249, y=512, x=512
i=49, j=250, y=512, x=512
i=49, j=429, y=512, x=512
i=49, j=448, y=512, x=512
i=49, j=463, y=512, x=512
i=49, j=487, y=512, x=512
i=50, j=194, y=512, x=512
i=50, j=205, y=512, x=512
i=50, j=215, y=512, x=512
i=50, j=216, y=512, x=512
i=50, j=251, y=512, x=512
i=50, j=252, y=512, x=512
i=50, j=253, y=512, x=512
i=50, j=429, y=512, x=512
i=50, j=449, y=512, x=512
i=50, j=461, y=512, x=512
i=49, j=463, y=512, x=512
i=50, j=194, y=512, x=512
i=50, j=215, y=512, x=512
i=50, j=216, y=512, x=512
i=50, j=251, y=512, x=512
i=50, j=252, y=512, x=512
i=50, j=253, y=512, x=512
i=50, j=429, y=512, x=512
i=50, j=449, y=512, x=512
i=50, j=462, y=512, x=512
i=51, j=24, y=512, x=512
i=51, j=62, y=512, x=512
i=51, j=203, y=512, x=512
i=51, j=213, y=512, x=512
i=51, j=217, y=512, x=512
i=51, j=218, y=512, x=512
i=51, j=226, y=512, x=512
i=51, j=233, y=512, x=512
i=51, j=238, y=512, x=512
i=51, j=254, y=512, x=512
i=51, j=255, y=512, x=512
i=51, j=256, y=512, x=512
i=50, j=429, y=512, x=512
i=50, j=449, y=512, x=512
i=50, j=462, y=512, x=512
i=51, j=62, y=512, x=512
i=51, j=213, y=512, x=512
i=51, j=217, y=512, x=512
i=51, j=218, y=512, x=512
i=51, j=254, y=512, x=512
i=51, j=255, y=512, x=512
i=51, j=348, y=512, x=512
i=51, j=429, y=512, x=512
i=50, j=429, y=512, x=512
i=50, j=449, y=512, x=512
i=50, j=462, y=512, x=512
i=51, j=62, y=512, x=512
i=51, j=213, y=512, x=512
i=51, j=217, y=512, x=512
i=51, j=218, y=512, x=512
i=51, j=254, y=512, x=512
i=51, j=255, y=512, x=512
i=51, j=430, y=512, x=512
i=51, j=449, y=512, x=512
i=50, j=449, y=512, x=512
i=50, j=462, y=512, x=512
i=51, j=62, y=512, x=512
i=51, j=213, y=512, x=512
i=51, j=217, y=512, x=512
i=51, j=218, y=512, x=512
i=51, j=254, y=512, x=512
i=51, j=255, y=512, x=512
i=51, j=430, y=512, x=512
i=51, j=450, y=512, x=512
i=51, j=460, y=512, x=512
i=50, j=462, y=512, x=512
i=51, j=62, y=512, x=512
i=51, j=213, y=512, x=512
i=51, j=217, y=512, x=512
i=51, j=218, y=512, x=512
i=51, j=254, y=512, x=512
i=51, j=255, y=512, x=512
i=51, j=430, y=512, x=512
i=51, j=450, y=512, x=512
i=51, j=461, y=512, x=512
i=52, j=62, y=512, x=512
i=52, j=63, y=512, x=512
i=52, j=191, y=512, x=512
i=52, j=197, y=512, x=512
i=52, j=213, y=512, x=512
i=52, j=212, y=512, x=512
i=52, j=213, y=512, x=512
i=52, j=235, y=512, x=512
i=52, j=256, y=512, x=512
i=52, j=257, y=512, x=512
i=52, j=258, y=512, x=512
i=51, j=430, y=512, x=512
i=51, j=450, y=512, x=512
i=51, j=461, y=512, x=512
i=52, j=62, y=512, x=512
i=52, j=63, y=512, x=512
i=52, j=212, y=512, x=512
i=52, j=213, y=512, x=512
i=52, j=256, y=512, x=512
i=52, j=257, y=512, x=512
i=52, j=430, y=512, x=512
i=51, j=430, y=512, x=512
i=51, j=450, y=512, x=512
i=51, j=461, y=512, x=512
i=52, j=62, y=512, x=512
i=52, j=63, y=512, x=512
i=52, j=212, y=512, x=512
i=52, j=213, y=512, x=512
i=52, j=256, y=512, x=512
i=52, j=257, y=512, x=512
i=52, j=431, y=512, x=512
i=52, j=451, y=512, x=512
i=52, j=459, y=512, x=512
i=51, j=461, y=512, x=512
i=52, j=62, y=512, x=512
i=52, j=63, y=512, x=512
i=52, j=212, y=512, x=512
i=52, j=213, y=512, x=512
i=52, j=256, y=512, x=512
i=52, j=257, y=512, x=512
i=52, j=431, y=512, x=512
i=52, j=451, y=512, x=512
i=52, j=460, y=512, x=512
i=53, j=21, y=512, x=512
i=53, j=61, y=512, x=512
i=53, j=167, y=512, x=512
i=53, j=210, y=512, x=512
i=53, j=243, y=512, x=512
i=53, j=246, y=512, x=512
i=53, j=258, y=512, x=512
i=53, j=259, y=512, x=512
i=53, j=260, y=512, x=512
i=52, j=431, y=512, x=512
i=52, j=451, y=512, x=512
i=52, j=460, y=512, x=512
i=53, j=61, y=512, x=512
i=53, j=258, y=512, x=512
i=53, j=259, y=512, x=512
i=53, j=431, y=512, x=512
i=53, j=449, y=512, x=512
i=52, j=449, y=512, x=512
i=52, j=451, y=512, x=512
i=52, j=460, y=512, x=512
i=53, j=61, y=512, x=512
i=53, j=258, y=512, x=512
i=53, j=259, y=512, x=512
i=53, j=431, y=512, x=512
i=53, j=449, y=512, x=512
i=52, j=449, y=512, x=512
i=52, j=451, y=512, x=512
i=52, j=460, y=512, x=512
i=53, j=61, y=512, x=512
i=53, j=258, y=512, x=512
i=53, j=259, y=512, x=512
i=53, j=431, y=512, x=512
i=53, j=450, y=512, x=512
i=53, j=459, y=512, x=512
i=54, j=61, y=512, x=512
i=54, j=214, y=512, x=512
i=54, j=238, y=512, x=512
i=54, j=240, y=512, x=512
i=54, j=260, y=512, x=512
i=54, j=261, y=512, x=512
i=54, j=262, y=512, x=512
i=53, j=431, y=512, x=512
i=53, j=450, y=512, x=512
i=53, j=459, y=512, x=512
i=54, j=61, y=512, x=512
i=54, j=238, y=512, x=512
i=54, j=260, y=512, x=512
i=54, j=261, y=512, x=512
i=54, j=432, y=512, x=512
i=54, j=451, y=512, x=512
i=54, j=457, y=512, x=512
i=53, j=459, y=512, x=512
i=54, j=61, y=512, x=512
i=54, j=238, y=512, x=512
i=54, j=260, y=512, x=512
i=54, j=261, y=512, x=512
i=54, j=432, y=512, x=512
i=54, j=451, y=512, x=512
i=54, j=458, y=512, x=512
i=54, j=459, y=512, x=512
i=53, j=459, y=512, x=512
i=54, j=61, y=512, x=512
i=54, j=238, y=512, x=512
i=54, j=260, y=512, x=512
i=54, j=261, y=512, x=512
i=54, j=432, y=512, x=512
i=54, j=451, y=512, x=512
i=54, j=458, y=512, x=512
i=55, j=62, y=512, x=512
i=55, j=189, y=512, x=512
i=55, j=207, y=512, x=512
i=55, j=217, y=512, x=512
i=55, j=219, y=512, x=512
i=55, j=225, y=512, x=512
i=55, j=228, y=512, x=512
i=55, j=238, y=512, x=512
i=55, j=242, y=512, x=512
i=55, j=262, y=512, x=512
i=55, j=263, y=512, x=512
i=55, j=264, y=512, x=512
i=54, j=432, y=512, x=512
i=54, j=451, y=512, x=512
i=54, j=458, y=512, x=512
i=55, j=62, y=512, x=512
i=55, j=207, y=512, x=512
i=55, j=219, y=512, x=512
i=55, j=238, y=512, x=512
i=55, j=262, y=512, x=512
i=55, j=263, y=512, x=512
i=55, j=329, y=512, x=512
i=55, j=432, y=512, x=512
i=55, j=452, y=512, x=512
i=55, j=457, y=512, x=512
i=56, j=61, y=512, x=512
i=56, j=180, y=512, x=512
i=56, j=208, y=512, x=512
i=56, j=209, y=512, x=512
i=56, j=220, y=512, x=512
i=56, j=232, y=512, x=512
i=56, j=239, y=512, x=512
i=56, j=264, y=512, x=512
i=56, j=265, y=512, x=512
i=55, j=329, y=512, x=512
i=55, j=432, y=512, x=512
i=55, j=452, y=512, x=512
i=55, j=457, y=512, x=512
i=56, j=61, y=512, x=512
i=56, j=208, y=512, x=512
i=56, j=209, y=512, x=512
i=56, j=220, y=512, x=512
i=56, j=239, y=512, x=512
i=56, j=264, y=512, x=512
i=56, j=329, y=512, x=512
i=56, j=391, y=512, x=512
i=56, j=432, y=512, x=512
i=55, j=432, y=512, x=512
i=55, j=452, y=512, x=512
i=55, j=457, y=512, x=512
i=56, j=61, y=512, x=512
i=56, j=208, y=512, x=512
i=56, j=209, y=512, x=512
i=56, j=220, y=512, x=512
i=56, j=239, y=512, x=512
i=56, j=264, y=512, x=512
i=56, j=329, y=512, x=512
i=56, j=433, y=512, x=512
i=56, j=453, y=512, x=512
i=56, j=456, y=512, x=512
i=55, j=457, y=512, x=512
i=56, j=61, y=512, x=512
i=56, j=208, y=512, x=512
i=56, j=209, y=512, x=512
i=56, j=220, y=512, x=512
i=56, j=239, y=512, x=512
i=56, j=264, y=512, x=512
i=56, j=329, y=512, x=512
i=56, j=433, y=512, x=512
i=56, j=453, y=512, x=512
i=56, j=457, y=512, x=512
i=57, j=17, y=512, x=512
i=57, j=62, y=512, x=512
i=57, j=172, y=512, x=512
i=57, j=174, y=512, x=512
i=57, j=176, y=512, x=512
i=57, j=178, y=512, x=512
i=57, j=214, y=512, x=512
i=57, j=219, y=512, x=512
i=57, j=218, y=512, x=512
i=57, j=219, y=512, x=512
i=57, j=235, y=512, x=512
i=57, j=237, y=512, x=512
i=57, j=238, y=512, x=512
i=57, j=265, y=512, x=512
i=57, j=266, y=512, x=512
i=57, j=267, y=512, x=512
i=56, j=329, y=512, x=512
i=56, j=433, y=512, x=512
i=56, j=453, y=512, x=512
i=56, j=457, y=512, x=512
i=57, j=62, y=512, x=512
i=57, j=172, y=512, x=512
i=57, j=174, y=512, x=512
i=57, j=176, y=512, x=512
i=57, j=218, y=512, x=512
i=57, j=219, y=512, x=512
i=57, j=237, y=512, x=512
i=57, j=238, y=512, x=512
i=57, j=265, y=512, x=512
i=57, j=266, y=512, x=512
i=57, j=433, y=512, x=512
i=57, j=453, y=512, x=512
i=57, j=455, y=512, x=512
i=56, j=457, y=512, x=512
i=57, j=62, y=512, x=512
i=57, j=172, y=512, x=512
i=57, j=174, y=512, x=512
i=57, j=176, y=512, x=512
i=57, j=218, y=512, x=512
i=57, j=219, y=512, x=512
i=57, j=237, y=512, x=512
i=57, j=238, y=512, x=512
i=57, j=265, y=512, x=512
i=57, j=266, y=512, x=512
i=57, j=433, y=512, x=512
i=57, j=453, y=512, x=512
i=57, j=456, y=512, x=512
i=58, j=59, y=512, x=512
i=58, j=61, y=512, x=512
i=58, j=168, y=512, x=512
i=58, j=172, y=512, x=512
i=58, j=175, y=512, x=512
i=58, j=176, y=512, x=512
i=57, j=176, y=512, x=512
i=57, j=218, y=512, x=512
i=57, j=219, y=512, x=512
i=57, j=237, y=512, x=512
i=57, j=238, y=512, x=512
i=57, j=265, y=512, x=512
i=57, j=266, y=512, x=512
i=57, j=433, y=512, x=512
i=57, j=453, y=512, x=512
i=57, j=456, y=512, x=512
i=58, j=61, y=512, x=512
i=58, j=168, y=512, x=512
i=58, j=172, y=512, x=512
i=58, j=175, y=512, x=512
i=58, j=189, y=512, x=512
i=58, j=194, y=512, x=512
i=58, j=198, y=512, x=512
i=58, j=204, y=512, x=512
i=58, j=216, y=512, x=512
i=58, j=238, y=512, x=512
i=57, j=237, y=512, x=512
i=57, j=238, y=512, x=512
i=57, j=265, y=512, x=512
i=57, j=266, y=512, x=512
i=57, j=433, y=512, x=512
i=57, j=453, y=512, x=512
i=57, j=456, y=512, x=512
i=58, j=61, y=512, x=512
i=58, j=168, y=512, x=512
i=58, j=172, y=512, x=512
i=58, j=175, y=512, x=512
i=58, j=189, y=512, x=512
i=58, j=239, y=512, x=512
i=58, j=242, y=512, x=512
i=58, j=267, y=512, x=512
i=58, j=283, y=512, x=512
i=58, j=409, y=512, x=512
i=58, j=434, y=512, x=512
i=58, j=453, y=512, x=512
i=58, j=455, y=512, x=512
i=58, j=464, y=512, x=512
i=58, j=486, y=512, x=512
i=58, j=499, y=512, x=512
i=59, j=62, y=512, x=512
i=59, j=167, y=512, x=512
i=59, j=169, y=512, x=512
i=59, j=170, y=512, x=512
i=59, j=171, y=512, x=512
i=59, j=189, y=512, x=512
i=59, j=202, y=512, x=512
i=59, j=211, y=512, x=512
i=59, j=213, y=512, x=512
i=59, j=214, y=512, x=512
i=59, j=220, y=512, x=512
i=59, j=221, y=512, x=512
i=59, j=231, y=512, x=512
i=59, j=232, y=512, x=512
i=59, j=242, y=512, x=512
i=59, j=268, y=512, x=512
i=59, j=269, y=512, x=512
i=59, j=270, y=512, x=512
i=58, j=434, y=512, x=512
i=58, j=453, y=512, x=512
i=58, j=455, y=512, x=512
i=59, j=61, y=512, x=512
i=59, j=167, y=512, x=512
i=59, j=169, y=512, x=512
i=59, j=170, y=512, x=512
i=59, j=171, y=512, x=512
i=59, j=189, y=512, x=512
i=59, j=202, y=512, x=512
i=59, j=213, y=512, x=512
i=59, j=214, y=512, x=512
i=59, j=220, y=512, x=512
i=59, j=221, y=512, x=512
i=59, j=231, y=512, x=512
i=59, j=232, y=512, x=512
i=59, j=242, y=512, x=512
i=59, j=268, y=512, x=512
i=59, j=269, y=512, x=512
i=59, j=315, y=512, x=512
i=59, j=434, y=512, x=512
i=59, j=438, y=512, x=512
i=59, j=454, y=512, x=512
i=60, j=20, y=512, x=512
i=60, j=61, y=512, x=512
i=60, j=163, y=512, x=512
i=60, j=164, y=512, x=512
i=60, j=165, y=512, x=512
i=60, j=166, y=512, x=512
i=60, j=169, y=512, x=512
i=60, j=171, y=512, x=512
i=60, j=201, y=512, x=512
i=60, j=229, y=512, x=512
i=60, j=230, y=512, x=512
i=60, j=241, y=512, x=512
i=60, j=270, y=512, x=512
i=60, j=271, y=512, x=512
i=59, j=434, y=512, x=512
i=59, j=454, y=512, x=512
i=60, j=20, y=512, x=512
i=60, j=61, y=512, x=512
i=60, j=163, y=512, x=512
i=60, j=164, y=512, x=512
i=60, j=165, y=512, x=512
i=60, j=166, y=512, x=512
i=60, j=169, y=512, x=512
i=60, j=171, y=512, x=512
i=60, j=201, y=512, x=512
i=60, j=229, y=512, x=512
i=60, j=230, y=512, x=512
i=60, j=241, y=512, x=512
i=60, j=270, y=512, x=512
i=60, j=390, y=512, x=512
i=60, j=435, y=512, x=512
i=60, j=454, y=512, x=512
i=60, j=494, y=512, x=512
i=61, j=20, y=512, x=512
i=61, j=25, y=512, x=512
i=61, j=62, y=512, x=512
i=61, j=133, y=512, x=512
i=61, j=163, y=512, x=512
i=61, j=166, y=512, x=512
i=61, j=168, y=512, x=512
i=61, j=167, y=512, x=512
i=61, j=168, y=512, x=512
i=61, j=200, y=512, x=512
i=61, j=205, y=512, x=512
i=61, j=210, y=512, x=512
i=61, j=225, y=512, x=512
i=61, j=226, y=512, x=512
i=61, j=239, y=512, x=512
i=61, j=240, y=512, x=512
i=61, j=246, y=512, x=512
i=61, j=271, y=512, x=512
i=61, j=272, y=512, x=512
i=61, j=435, y=512, x=512
i=60, j=435, y=512, x=512
i=60, j=454, y=512, x=512
i=61, j=20, y=512, x=512
i=61, j=62, y=512, x=512
i=61, j=163, y=512, x=512
i=61, j=166, y=512, x=512
i=60, j=165, y=512, x=512
i=60, j=166, y=512, x=512
i=60, j=169, y=512, x=512
i=60, j=171, y=512, x=512
i=60, j=201, y=512, x=512
i=60, j=229, y=512, x=512
i=60, j=230, y=512, x=512
i=60, j=241, y=512, x=512
i=60, j=270, y=512, x=512
i=60, j=435, y=512, x=512
i=60, j=454, y=512, x=512
i=61, j=20, y=512, x=512
i=61, j=62, y=512, x=512
i=61, j=163, y=512, x=512
i=61, j=167, y=512, x=512
i=61, j=168, y=512, x=512
i=61, j=200, y=512, x=512
i=61, j=225, y=512, x=512
i=61, j=226, y=512, x=512
i=61, j=239, y=512, x=512
i=61, j=240, y=512, x=512
i=61, j=271, y=512, x=512
i=61, j=272, y=512, x=512
i=61, j=436, y=512, x=512
i=61, j=453, y=512, x=512
i=60, j=454, y=512, x=512
i=61, j=20, y=512, x=512
i=61, j=62, y=512, x=512
i=61, j=163, y=512, x=512
i=61, j=167, y=512, x=512
i=61, j=168, y=512, x=512
i=61, j=200, y=512, x=512
i=61, j=225, y=512, x=512
i=61, j=226, y=512, x=512
i=61, j=239, y=512, x=512
i=61, j=240, y=512, x=512
i=61, j=271, y=512, x=512
i=61, j=272, y=512, x=512
i=61, j=436, y=512, x=512
i=61, j=454, y=512, x=512
i=61, j=482, y=512, x=512
i=61, j=483, y=512, x=512
i=62, j=20, y=512, x=512
i=62, j=29, y=512, x=512
i=62, j=62, y=512, x=512
i=62, j=166, y=512, x=512
i=61, j=165, y=512, x=512
i=61, j=167, y=512, x=512
i=61, j=168, y=512, x=512
i=61, j=200, y=512, x=512
i=61, j=225, y=512, x=512
i=61, j=226, y=512, x=512
i=61, j=239, y=512, x=512
i=61, j=240, y=512, x=512
i=61, j=271, y=512, x=512
i=61, j=272, y=512, x=512
i=61, j=436, y=512, x=512
i=61, j=454, y=512, x=512
i=61, j=482, y=512, x=512
i=61, j=483, y=512, x=512
i=62, j=20, y=512, x=512
i=62, j=29, y=512, x=512
i=62, j=62, y=512, x=512
i=62, j=166, y=512, x=512
i=62, j=203, y=512, x=512
i=62, j=215, y=512, x=512
i=62, j=235, y=512, x=512
i=62, j=237, y=512, x=512
i=62, j=249, y=512, x=512
i=62, j=256, y=512, x=512
i=62, j=259, y=512, x=512
i=62, j=273, y=512, x=512
i=62, j=274, y=512, x=512
i=61, j=436, y=512, x=512
i=61, j=454, y=512, x=512
i=61, j=482, y=512, x=512
i=61, j=483, y=512, x=512
i=62, j=20, y=512, x=512
i=62, j=29, y=512, x=512
i=62, j=62, y=512, x=512
i=62, j=166, y=512, x=512
i=62, j=215, y=512, x=512
i=62, j=273, y=512, x=512
i=62, j=436, y=512, x=512
i=62, j=453, y=512, x=512
i=63, j=19, y=512, x=512
i=63, j=24, y=512, x=512
i=63, j=30, y=512, x=512
i=63, j=45, y=512, x=512
i=63, j=61, y=512, x=512
i=63, j=159, y=512, x=512
i=62, j=166, y=512, x=512
i=62, j=215, y=512, x=512
i=62, j=273, y=512, x=512
i=62, j=436, y=512, x=512
i=62, j=453, y=512, x=512
i=63, j=19, y=512, x=512
i=63, j=30, y=512, x=512
i=63, j=61, y=512, x=512
i=63, j=160, y=512, x=512
i=63, j=215, y=512, x=512
i=63, j=274, y=512, x=512
i=63, j=275, y=512, x=512
i=63, j=374, y=512, x=512
i=63, j=437, y=512, x=512
i=63, j=438, y=512, x=512
i=62, j=453, y=512, x=512
i=63, j=19, y=512, x=512
i=63, j=30, y=512, x=512
i=63, j=61, y=512, x=512
i=63, j=160, y=512, x=512
i=63, j=215, y=512, x=512
i=63, j=274, y=512, x=512
i=63, j=275, y=512, x=512
i=63, j=437, y=512, x=512
i=63, j=452, y=512, x=512
i=64, j=19, y=512, x=512
i=64, j=63, y=512, x=512
i=64, j=158, y=512, x=512
i=63, j=160, y=512, x=512
i=63, j=215, y=512, x=512
i=63, j=274, y=512, x=512
i=63, j=275, y=512, x=512
i=63, j=437, y=512, x=512
i=63, j=452, y=512, x=512
i=64, j=19, y=512, x=512
i=64, j=159, y=512, x=512
i=64, j=161, y=512, x=512
i=64, j=166, y=512, x=512
i=64, j=212, y=512, x=512
i=64, j=215, y=512, x=512
i=64, j=222, y=512, x=512
i=64, j=226, y=512, x=512
[...]
i=503, j=72, y=512, x=512
i=503, j=83, y=512, x=512
i=503, j=97, y=512, x=512
i=503, j=101, y=512, x=512
i=503, j=107, y=512, x=512
i=503, j=109, y=512, x=512
i=503, j=118, y=512, x=512
i=503, j=121, y=512, x=512
i=503, j=130, y=512, x=512
i=503, j=136, y=512, x=512
i=503, j=139, y=512, x=512
i=503, j=140, y=512, x=512
i=502, j=140, y=512, x=512
i=501, j=141, y=512, x=512
i=501, j=146, y=512, x=512
i=501, j=150, y=512, x=512
i=501, j=152, y=512, x=512
i=501, j=157, y=512, x=512
i=501, j=161, y=512, x=512
i=501, j=166, y=512, x=512
i=501, j=167, y=512, x=512
i=501, j=185, y=512, x=512
i=501, j=380, y=512, x=512
i=501, j=472, y=512, x=512
i=502, j=14, y=512, x=512
i=502, j=17, y=512, x=512
i=502, j=30, y=512, x=512
i=502, j=36, y=512, x=512
i=502, j=59, y=512, x=512
i=502, j=60, y=512, x=512
i=502, j=63, y=512, x=512
i=502, j=83, y=512, x=512
i=502, j=98, y=512, x=512
i=502, j=100, y=512, x=512
i=502, j=107, y=512, x=512
i=502, j=109, y=512, x=512
i=502, j=118, y=512, x=512
i=502, j=122, y=512, x=512
i=502, j=129, y=512, x=512
i=502, j=136, y=512, x=512
i=502, j=138, y=512, x=512
i=502, j=140, y=512, x=512
i=502, j=145, y=512, x=512
i=502, j=151, y=512, x=512
i=502, j=158, y=512, x=512
i=502, j=161, y=512, x=512
i=502, j=167, y=512, x=512
i=502, j=380, y=512, x=512
i=502, j=392, y=512, x=512
i=502, j=393, y=512, x=512
i=502, j=472, y=512, x=512
i=503, j=15, y=512, x=512
i=503, j=16, y=512, x=512
i=503, j=30, y=512, x=512
i=503, j=37, y=512, x=512
i=503, j=60, y=512, x=512
i=503, j=64, y=512, x=512
i=503, j=72, y=512, x=512
i=503, j=83, y=512, x=512
i=503, j=97, y=512, x=512
i=503, j=101, y=512, x=512
i=503, j=107, y=512, x=512
i=503, j=109, y=512, x=512
i=503, j=118, y=512, x=512
i=503, j=121, y=512, x=512
i=503, j=130, y=512, x=512
i=503, j=136, y=512, x=512
i=503, j=139, y=512, x=512
i=503, j=144, y=512, x=512
i=503, j=152, y=512, x=512
i=503, j=158, y=512, x=512
i=503, j=161, y=512, x=512
i=503, j=167, y=512, x=512
i=503, j=182, y=512, x=512
i=503, j=381, y=512, x=512
i=503, j=465, y=512, x=512
i=503, j=471, y=512, x=512
i=503, j=472, y=512, x=512
i=502, j=472, y=512, x=512
i=503, j=15, y=512, x=512
i=503, j=16, y=512, x=512
i=503, j=30, y=512, x=512
i=503, j=37, y=512, x=512
i=503, j=60, y=512, x=512
i=503, j=64, y=512, x=512
i=503, j=72, y=512, x=512
i=503, j=83, y=512, x=512
i=503, j=97, y=512, x=512
i=503, j=101, y=512, x=512
i=503, j=107, y=512, x=512
i=503, j=109, y=512, x=512
i=503, j=118, y=512, x=512
i=503, j=121, y=512, x=512
i=503, j=130, y=512, x=512
i=503, j=136, y=512, x=512
i=503, j=139, y=512, x=512
i=503, j=144, y=512, x=512
i=503, j=152, y=512, x=512
i=503, j=158, y=512, x=512
i=503, j=161, y=512, x=512
i=503, j=167, y=512, x=512
i=503, j=381, y=512, x=512
i=503, j=471, y=512, x=512
i=503, j=500, y=512, x=512
i=503, j=504, y=512, x=512
i=504, j=16, y=512, x=512
i=504, j=30, y=512, x=512
i=504, j=64, y=512, x=512
i=504, j=72, y=512, x=512
i=504, j=82, y=512, x=512
i=504, j=85, y=512, x=512
i=504, j=97, y=512, x=512
i=504, j=101, y=512, x=512
i=504, j=107, y=512, x=512
i=504, j=109, y=512, x=512
i=504, j=118, y=512, x=512
i=504, j=120, y=512, x=512
i=504, j=119, y=512, x=512
i=504, j=120, y=512, x=512
i=504, j=126, y=512, x=512
i=503, j=125, y=512, x=512
i=502, j=125, y=512, x=512
i=501, j=125, y=512, x=512
i=501, j=129, y=512, x=512
i=501, j=135, y=512, x=512
i=501, j=138, y=512, x=512
i=501, j=140, y=512, x=512
i=501, j=146, y=512, x=512
i=501, j=150, y=512, x=512
i=501, j=152, y=512, x=512
i=501, j=157, y=512, x=512
i=501, j=161, y=512, x=512
i=501, j=166, y=512, x=512
i=501, j=167, y=512, x=512
i=501, j=185, y=512, x=512
i=501, j=380, y=512, x=512
i=501, j=472, y=512, x=512
i=502, j=14, y=512, x=512
i=502, j=17, y=512, x=512
i=502, j=30, y=512, x=512
i=502, j=36, y=512, x=512
i=502, j=60, y=512, x=512
i=502, j=63, y=512, x=512
i=502, j=83, y=512, x=512
i=502, j=98, y=512, x=512
i=502, j=100, y=512, x=512
i=502, j=107, y=512, x=512
i=502, j=109, y=512, x=512
i=502, j=118, y=512, x=512
i=502, j=122, y=512, x=512
i=502, j=125, y=512, x=512
i=502, j=129, y=512, x=512
i=502, j=136, y=512, x=512
i=502, j=138, y=512, x=512
i=502, j=140, y=512, x=512
i=502, j=145, y=512, x=512
i=502, j=151, y=512, x=512
i=502, j=158, y=512, x=512
i=502, j=161, y=512, x=512
i=502, j=167, y=512, x=512
i=502, j=380, y=512, x=512
i=502, j=392, y=512, x=512
i=502, j=393, y=512, x=512
i=502, j=472, y=512, x=512
i=503, j=15, y=512, x=512
i=503, j=16, y=512, x=512
i=503, j=30, y=512, x=512
i=503, j=37, y=512, x=512
i=503, j=60, y=512, x=512
i=503, j=64, y=512, x=512
i=503, j=72, y=512, x=512
i=503, j=83, y=512, x=512
i=503, j=97, y=512, x=512
i=503, j=101, y=512, x=512
i=503, j=107, y=512, x=512
i=503, j=109, y=512, x=512
i=503, j=118, y=512, x=512
i=503, j=121, y=512, x=512
i=503, j=125, y=512, x=512
i=503, j=130, y=512, x=512
i=503, j=136, y=512, x=512
i=503, j=139, y=512, x=512
i=503, j=144, y=512, x=512
i=503, j=152, y=512, x=512
i=503, j=158, y=512, x=512
i=503, j=161, y=512, x=512
i=503, j=167, y=512, x=512
i=503, j=381, y=512, x=512
i=503, j=471, y=512, x=512
i=503, j=504, y=512, x=512
i=504, j=16, y=512, x=512
i=504, j=30, y=512, x=512
i=504, j=64, y=512, x=512
i=504, j=72, y=512, x=512
i=504, j=82, y=512, x=512
i=504, j=97, y=512, x=512
i=504, j=101, y=512, x=512
i=504, j=107, y=512, x=512
i=504, j=109, y=512, x=512
i=504, j=118, y=512, x=512
i=503, j=118, y=512, x=512
i=503, j=121, y=512, x=512
i=503, j=125, y=512, x=512
i=503, j=130, y=512, x=512
i=503, j=136, y=512, x=512
i=503, j=139, y=512, x=512
i=503, j=144, y=512, x=512
i=503, j=152, y=512, x=512
i=503, j=158, y=512, x=512
i=503, j=161, y=512, x=512
i=503, j=167, y=512, x=512
i=503, j=381, y=512, x=512
i=503, j=471, y=512, x=512
i=503, j=504, y=512, x=512
i=504, j=16, y=512, x=512
i=504, j=30, y=512, x=512
i=504, j=64, y=512, x=512
i=504, j=72, y=512, x=512
i=504, j=82, y=512, x=512
i=504, j=97, y=512, x=512
i=504, j=101, y=512, x=512
i=504, j=107, y=512, x=512
i=504, j=109, y=512, x=512
i=504, j=119, y=512, x=512
i=504, j=120, y=512, x=512
i=504, j=126, y=512, x=512
i=504, j=130, y=512, x=512
i=504, j=137, y=512, x=512
i=504, j=143, y=512, x=512
i=504, j=146, y=512, x=512
i=504, j=153, y=512, x=512
i=504, j=157, y=512, x=512
i=504, j=161, y=512, x=512
i=504, j=163, y=512, x=512
i=504, j=165, y=512, x=512
i=504, j=167, y=512, x=512
i=504, j=381, y=512, x=512
i=504, j=389, y=512, x=512
i=504, j=438, y=512, x=512
i=504, j=447, y=512, x=512
i=504, j=469, y=512, x=512
i=504, j=470, y=512, x=512
i=504, j=503, y=512, x=512
i=504, j=505, y=512, x=512
i=505, j=16, y=512, x=512
i=505, j=30, y=512, x=512
i=505, j=60, y=512, x=512
i=505, j=62, y=512, x=512
i=505, j=64, y=512, x=512
i=505, j=81, y=512, x=512
i=505, j=80, y=512, x=512
i=505, j=81, y=512, x=512
i=505, j=92, y=512, x=512
i=505, j=98, y=512, x=512
i=505, j=99, y=512, x=512
i=504, j=100, y=512, x=512
i=504, j=101, y=512, x=512
i=503, j=101, y=512, x=512
i=503, j=107, y=512, x=512
i=503, j=109, y=512, x=512
i=503, j=118, y=512, x=512
i=503, j=121, y=512, x=512
i=503, j=125, y=512, x=512
i=503, j=130, y=512, x=512
i=503, j=136, y=512, x=512
i=503, j=139, y=512, x=512
i=503, j=144, y=512, x=512
i=503, j=152, y=512, x=512
i=503, j=158, y=512, x=512
i=503, j=161, y=512, x=512
i=503, j=167, y=512, x=512
i=503, j=381, y=512, x=512
i=503, j=471, y=512, x=512
i=503, j=504, y=512, x=512
i=504, j=16, y=512, x=512
i=504, j=30, y=512, x=512
i=504, j=64, y=512, x=512
i=504, j=72, y=512, x=512
i=504, j=82, y=512, x=512
i=504, j=97, y=512, x=512
i=504, j=100, y=512, x=512
i=504, j=107, y=512, x=512
i=504, j=109, y=512, x=512
i=504, j=119, y=512, x=512
i=504, j=120, y=512, x=512
i=504, j=126, y=512, x=512
i=504, j=130, y=512, x=512
i=504, j=137, y=512, x=512
i=504, j=143, y=512, x=512
i=504, j=153, y=512, x=512
i=504, j=157, y=512, x=512
i=504, j=161, y=512, x=512
i=504, j=167, y=512, x=512
i=504, j=381, y=512, x=512
i=504, j=469, y=512, x=512
i=504, j=470, y=512, x=512
i=504, j=503, y=512, x=512
i=504, j=505, y=512, x=512
i=505, j=16, y=512, x=512
i=505, j=30, y=512, x=512
i=505, j=64, y=512, x=512
i=505, j=80, y=512, x=512
i=505, j=81, y=512, x=512
i=505, j=92, y=512, x=512
i=505, j=98, y=512, x=512
i=505, j=99, y=512, x=512
i=505, j=101, y=512, x=512
i=505, j=102, y=512, x=512
i=504, j=107, y=512, x=512
i=504, j=109, y=512, x=512
i=504, j=119, y=512, x=512
i=504, j=120, y=512, x=512
i=504, j=126, y=512, x=512
i=504, j=130, y=512, x=512
i=504, j=137, y=512, x=512
i=504, j=143, y=512, x=512
i=504, j=153, y=512, x=512
i=504, j=157, y=512, x=512
i=504, j=161, y=512, x=512
i=504, j=167, y=512, x=512
i=504, j=381, y=512, x=512
i=504, j=469, y=512, x=512
i=504, j=470, y=512, x=512
i=504, j=503, y=512, x=512
i=504, j=505, y=512, x=512
i=505, j=16, y=512, x=512
i=505, j=30, y=512, x=512
i=505, j=64, y=512, x=512
i=505, j=80, y=512, x=512
i=505, j=81, y=512, x=512
i=505, j=92, y=512, x=512
i=505, j=98, y=512, x=512
i=505, j=99, y=512, x=512
i=505, j=101, y=512, x=512
i=505, j=107, y=512, x=512
i=505, j=109, y=512, x=512
i=505, j=118, y=512, x=512
i=505, j=122, y=512, x=512
i=504, j=122, y=512, x=512
i=504, j=126, y=512, x=512
i=504, j=130, y=512, x=512
i=504, j=137, y=512, x=512
i=504, j=143, y=512, x=512
i=504, j=153, y=512, x=512
i=504, j=157, y=512, x=512
i=504, j=161, y=512, x=512
i=504, j=167, y=512, x=512
i=504, j=381, y=512, x=512
i=504, j=469, y=512, x=512
i=504, j=470, y=512, x=512
i=504, j=503, y=512, x=512
i=504, j=505, y=512, x=512
i=505, j=16, y=512, x=512
i=505, j=30, y=512, x=512
i=505, j=64, y=512, x=512
i=505, j=80, y=512, x=512
i=505, j=81, y=512, x=512
i=505, j=92, y=512, x=512
i=505, j=98, y=512, x=512
i=505, j=99, y=512, x=512
i=505, j=101, y=512, x=512
i=505, j=107, y=512, x=512
i=505, j=109, y=512, x=512
i=505, j=118, y=512, x=512
i=505, j=122, y=512, x=512
i=505, j=127, y=512, x=512
i=505, j=130, y=512, x=512
i=505, j=137, y=512, x=512
i=505, j=144, y=512, x=512
i=505, j=153, y=512, x=512
i=504, j=153, y=512, x=512
i=504, j=157, y=512, x=512
i=504, j=161, y=512, x=512
i=504, j=167, y=512, x=512
i=504, j=381, y=512, x=512
i=504, j=469, y=512, x=512
i=504, j=470, y=512, x=512
i=504, j=503, y=512, x=512
i=504, j=505, y=512, x=512
i=505, j=16, y=512, x=512
i=505, j=30, y=512, x=512
i=505, j=64, y=512, x=512
i=505, j=80, y=512, x=512
i=505, j=81, y=512, x=512
i=505, j=92, y=512, x=512
i=505, j=98, y=512, x=512
i=505, j=99, y=512, x=512
i=505, j=101, y=512, x=512
i=505, j=107, y=512, x=512
i=505, j=109, y=512, x=512
i=505, j=118, y=512, x=512
i=505, j=122, y=512, x=512
i=505, j=127, y=512, x=512
i=505, j=130, y=512, x=512
i=505, j=137, y=512, x=512
i=505, j=144, y=512, x=512
i=505, j=154, y=512, x=512
i=505, j=158, y=512, x=512
i=505, j=161, y=512, x=512
i=505, j=167, y=512, x=512
i=504, j=167, y=512, x=512
i=504, j=381, y=512, x=512
i=504, j=469, y=512, x=512
i=504, j=470, y=512, x=512
i=504, j=503, y=512, x=512
i=504, j=505, y=512, x=512
i=505, j=16, y=512, x=512
i=505, j=30, y=512, x=512
i=505, j=64, y=512, x=512
i=505, j=80, y=512, x=512
i=505, j=81, y=512, x=512
i=505, j=92, y=512, x=512
i=505, j=98, y=512, x=512
i=505, j=99, y=512, x=512
i=505, j=101, y=512, x=512
i=505, j=107, y=512, x=512
i=505, j=109, y=512, x=512
i=505, j=118, y=512, x=512
i=505, j=122, y=512, x=512
i=505, j=127, y=512, x=512
i=505, j=130, y=512, x=512
i=505, j=137, y=512, x=512
i=505, j=144, y=512, x=512
i=505, j=154, y=512, x=512
i=505, j=158, y=512, x=512
i=505, j=161, y=512, x=512
i=505, j=168, y=512, x=512
i=505, j=381, y=512, x=512
i=505, j=426, y=512, x=512
i=505, j=464, y=512, x=512
i=505, j=468, y=512, x=512
i=506, j=16, y=512, x=512
i=506, j=31, y=512, x=512
i=506, j=64, y=512, x=512
i=506, j=69, y=512, x=512
i=506, j=79, y=512, x=512
i=506, j=85, y=512, x=512
i=506, j=92, y=512, x=512
i=506, j=96, y=512, x=512
i=506, j=102, y=512, x=512
i=506, j=107, y=512, x=512
i=506, j=109, y=512, x=512
i=506, j=118, y=512, x=512
i=506, j=122, y=512, x=512
i=506, j=128, y=512, x=512
i=506, j=129, y=512, x=512
i=506, j=137, y=512, x=512
i=506, j=141, y=512, x=512
i=505, j=141, y=512, x=512
i=504, j=141, y=512, x=512
i=503, j=140, y=512, x=512
i=503, j=144, y=512, x=512
i=503, j=152, y=512, x=512
i=503, j=158, y=512, x=512
i=503, j=161, y=512, x=512
i=503, j=167, y=512, x=512
i=503, j=381, y=512, x=512
i=503, j=471, y=512, x=512
i=503, j=504, y=512, x=512
i=504, j=16, y=512, x=512
i=504, j=30, y=512, x=512
i=504, j=64, y=512, x=512
i=504, j=72, y=512, x=512
i=504, j=82, y=512, x=512
i=504, j=97, y=512, x=512
i=504, j=100, y=512, x=512
i=504, j=107, y=512, x=512
i=504, j=109, y=512, x=512
i=504, j=119, y=512, x=512
i=504, j=120, y=512, x=512
i=504, j=122, y=512, x=512
i=504, j=126, y=512, x=512
i=504, j=130, y=512, x=512
i=504, j=137, y=512, x=512
i=504, j=141, y=512, x=512
i=504, j=143, y=512, x=512
i=504, j=153, y=512, x=512
i=504, j=157, y=512, x=512
i=504, j=161, y=512, x=512
i=504, j=167, y=512, x=512
i=504, j=381, y=512, x=512
i=504, j=469, y=512, x=512
i=504, j=470, y=512, x=512
i=504, j=503, y=512, x=512
i=504, j=505, y=512, x=512
i=505, j=16, y=512, x=512
i=505, j=30, y=512, x=512
i=505, j=64, y=512, x=512
i=505, j=80, y=512, x=512
i=505, j=81, y=512, x=512
i=505, j=92, y=512, x=512
i=505, j=98, y=512, x=512
i=505, j=99, y=512, x=512
i=505, j=101, y=512, x=512
i=505, j=107, y=512, x=512
i=505, j=109, y=512, x=512
i=505, j=118, y=512, x=512
i=505, j=122, y=512, x=512
i=505, j=127, y=512, x=512
i=505, j=130, y=512, x=512
i=505, j=137, y=512, x=512
i=505, j=141, y=512, x=512
i=505, j=144, y=512, x=512
i=505, j=154, y=512, x=512
i=505, j=158, y=512, x=512
i=505, j=161, y=512, x=512
i=505, j=168, y=512, x=512
i=505, j=381, y=512, x=512
i=505, j=464, y=512, x=512
i=505, j=468, y=512, x=512
i=506, j=16, y=512, x=512
i=506, j=31, y=512, x=512
i=506, j=64, y=512, x=512
i=506, j=79, y=512, x=512
i=506, j=92, y=512, x=512
i=506, j=102, y=512, x=512
i=506, j=107, y=512, x=512
i=506, j=109, y=512, x=512
i=506, j=118, y=512, x=512
i=506, j=122, y=512, x=512
i=506, j=128, y=512, x=512
i=506, j=129, y=512, x=512
i=506, j=137, y=512, x=512
i=506, j=141, y=512, x=512
i=506, j=145, y=512, x=512
i=506, j=149, y=512, x=512
i=505, j=149, y=512, x=512
i=504, j=149, y=512, x=512
i=503, j=149, y=512, x=512
i=503, j=152, y=512, x=512
i=503, j=158, y=512, x=512
i=503, j=161, y=512, x=512
i=503, j=167, y=512, x=512
i=503, j=381, y=512, x=512
i=503, j=471, y=512, x=512
i=503, j=504, y=512, x=512
i=504, j=16, y=512, x=512
i=504, j=30, y=512, x=512
i=504, j=64, y=512, x=512
i=504, j=72, y=512, x=512
i=504, j=82, y=512, x=512
i=504, j=97, y=512, x=512
i=504, j=100, y=512, x=512
i=504, j=107, y=512, x=512
i=504, j=109, y=512, x=512
i=504, j=119, y=512, x=512
i=504, j=120, y=512, x=512
i=504, j=122, y=512, x=512
i=504, j=126, y=512, x=512
i=504, j=130, y=512, x=512
i=504, j=137, y=512, x=512
i=504, j=141, y=512, x=512
i=504, j=143, y=512, x=512
i=504, j=149, y=512, x=512
i=504, j=153, y=512, x=512
i=504, j=157, y=512, x=512
i=504, j=161, y=512, x=512
i=504, j=167, y=512, x=512
i=504, j=381, y=512, x=512
i=504, j=469, y=512, x=512
i=504, j=470, y=512, x=512
i=504, j=503, y=512, x=512
i=504, j=505, y=512, x=512
i=505, j=16, y=512, x=512
i=505, j=30, y=512, x=512
i=505, j=64, y=512, x=512
i=505, j=80, y=512, x=512
i=505, j=81, y=512, x=512
i=505, j=92, y=512, x=512
i=505, j=98, y=512, x=512
i=505, j=99, y=512, x=512
i=505, j=101, y=512, x=512
i=505, j=107, y=512, x=512
i=505, j=109, y=512, x=512
i=505, j=118, y=512, x=512
i=505, j=122, y=512, x=512
i=505, j=127, y=512, x=512
i=505, j=130, y=512, x=512
i=505, j=137, y=512, x=512
i=505, j=141, y=512, x=512
i=505, j=144, y=512, x=512
i=505, j=149, y=512, x=512
i=505, j=154, y=512, x=512
i=505, j=158, y=512, x=512
i=505, j=161, y=512, x=512
i=505, j=168, y=512, x=512
i=505, j=381, y=512, x=512
i=505, j=464, y=512, x=512
i=505, j=468, y=512, x=512
i=506, j=16, y=512, x=512
i=506, j=31, y=512, x=512
i=506, j=64, y=512, x=512
i=506, j=79, y=512, x=512
i=506, j=92, y=512, x=512
i=506, j=102, y=512, x=512
i=506, j=107, y=512, x=512
i=506, j=109, y=512, x=512
i=506, j=118, y=512, x=512
i=506, j=122, y=512, x=512
i=506, j=128, y=512, x=512
i=506, j=129, y=512, x=512
i=506, j=137, y=512, x=512
i=506, j=141, y=512, x=512
i=506, j=145, y=512, x=512
i=506, j=149, y=512, x=512
i=506, j=154, y=512, x=512
i=506, j=153, y=512, x=512
i=506, j=154, y=512, x=512
i=505, j=154, y=512, x=512
i=505, j=158, y=512, x=512
i=505, j=161, y=512, x=512
i=505, j=168, y=512, x=512
i=505, j=381, y=512, x=512
i=505, j=464, y=512, x=512
i=505, j=468, y=512, x=512
i=506, j=16, y=512, x=512
i=506, j=31, y=512, x=512
i=506, j=64, y=512, x=512
i=506, j=79, y=512, x=512
i=506, j=92, y=512, x=512
i=506, j=102, y=512, x=512
i=506, j=107, y=512, x=512
i=506, j=109, y=512, x=512
i=506, j=118, y=512, x=512
i=506, j=122, y=512, x=512
i=506, j=128, y=512, x=512
i=506, j=129, y=512, x=512
i=506, j=137, y=512, x=512
i=506, j=141, y=512, x=512
i=506, j=145, y=512, x=512
i=506, j=149, y=512, x=512
i=506, j=153, y=512, x=512
i=506, j=154, y=512, x=512
i=506, j=158, y=512, x=512
i=506, j=162, y=512, x=512
i=506, j=169, y=512, x=512
i=506, j=266, y=512, x=512
i=506, j=381, y=512, x=512
i=506, j=409, y=512, x=512
i=506, j=464, y=512, x=512
i=506, j=499, y=512, x=512
i=507, j=16, y=512, x=512
i=507, j=31, y=512, x=512
i=507, j=35, y=512, x=512
i=507, j=59, y=512, x=512
i=507, j=64, y=512, x=512
i=507, j=98, y=512, x=512
i=507, j=103, y=512, x=512
i=507, j=105, y=512, x=512
i=507, j=107, y=512, x=512
i=506, j=107, y=512, x=512
i=506, j=109, y=512, x=512
i=506, j=118, y=512, x=512
i=506, j=122, y=512, x=512
i=506, j=128, y=512, x=512
i=506, j=129, y=512, x=512
i=506, j=137, y=512, x=512
i=506, j=141, y=512, x=512
i=506, j=145, y=512, x=512
i=506, j=149, y=512, x=512
i=506, j=153, y=512, x=512
i=506, j=154, y=512, x=512
i=506, j=158, y=512, x=512
i=506, j=162, y=512, x=512
i=506, j=169, y=512, x=512
i=506, j=381, y=512, x=512
i=506, j=464, y=512, x=512
i=507, j=16, y=512, x=512
i=507, j=31, y=512, x=512
i=507, j=64, y=512, x=512
i=507, j=103, y=512, x=512
i=507, j=108, y=512, x=512
i=507, j=118, y=512, x=512
i=507, j=122, y=512, x=512
i=507, j=128, y=512, x=512
i=507, j=131, y=512, x=512
i=507, j=130, y=512, x=512
i=507, j=131, y=512, x=512
i=507, j=132, y=512, x=512
i=507, j=137, y=512, x=512
i=507, j=141, y=512, x=512
i=507, j=146, y=512, x=512
i=507, j=147, y=512, x=512
i=507, j=150, y=512, x=512
i=507, j=159, y=512, x=512
i=507, j=160, y=512, x=512
i=506, j=161, y=512, x=512
i=506, j=162, y=512, x=512
i=505, j=161, y=512, x=512
i=505, j=168, y=512, x=512
i=505, j=381, y=512, x=512
i=505, j=464, y=512, x=512
i=505, j=468, y=512, x=512
i=506, j=16, y=512, x=512
i=506, j=31, y=512, x=512
i=506, j=64, y=512, x=512
i=506, j=79, y=512, x=512
i=506, j=92, y=512, x=512
i=506, j=102, y=512, x=512
i=506, j=107, y=512, x=512
i=506, j=109, y=512, x=512
i=506, j=118, y=512, x=512
i=506, j=122, y=512, x=512
i=506, j=128, y=512, x=512
i=506, j=129, y=512, x=512
i=506, j=137, y=512, x=512
i=506, j=141, y=512, x=512
i=506, j=145, y=512, x=512
i=506, j=149, y=512, x=512
i=506, j=153, y=512, x=512
i=506, j=154, y=512, x=512
i=506, j=158, y=512, x=512
i=506, j=161, y=512, x=512
i=506, j=169, y=512, x=512
i=506, j=381, y=512, x=512
i=506, j=464, y=512, x=512
i=507, j=16, y=512, x=512
i=507, j=31, y=512, x=512
i=507, j=64, y=512, x=512
i=507, j=103, y=512, x=512
i=507, j=108, y=512, x=512
i=507, j=118, y=512, x=512
i=507, j=122, y=512, x=512
i=507, j=128, y=512, x=512
i=507, j=130, y=512, x=512
i=507, j=131, y=512, x=512
i=507, j=132, y=512, x=512
i=507, j=137, y=512, x=512
i=507, j=141, y=512, x=512
i=507, j=146, y=512, x=512
i=507, j=147, y=512, x=512
i=507, j=150, y=512, x=512
i=507, j=159, y=512, x=512
i=507, j=160, y=512, x=512
i=507, j=162, y=512, x=512
i=507, j=164, y=512, x=512
i=507, j=167, y=512, x=512
i=507, j=170, y=512, x=512
i=507, j=382, y=512, x=512
i=507, j=438, y=512, x=512
i=507, j=469, y=512, x=512
i=507, j=486, y=512, x=512
i=507, j=490, y=512, x=512
i=507, j=501, y=512, x=512
i=507, j=502, y=512, x=512
edge_draw
Exiting @ tick 182603942500 because target called exit()
